SUMMARY OF JOB INFORMATION
  STEP      INC     ATT  ITRS     TOT TIME     STEP TIME      INC TIME
     1          1     1     2  0.100000E-04  0.100000E-04  0.100000E-04
     1          1     2     2  0.100000E-04  0.100000E-04  0.100000E-04
     1          1     2     2  0.100000E-04  0.100000E-04  0.100000E-04
     1          1     2     2  0.100000E-04  0.100000E-04  0.100000E-04
     1          1     2     2  0.100000E-04  0.100000E-04  0.100000E-04
     1          1     2     2  0.100000E-04  0.100000E-04  0.100000E-04
     1          1     2     2  0.100000E-04  0.100000E-04  0.100000E-04
     1          1     2     2  0.100000E-04  0.100000E-04  0.100000E-04
     1          1     2     2  0.100000E-04  0.100000E-04  0.100000E-04
     1          1     2     2  0.100000E-04  0.100000E-04  0.100000E-04
     1          1     2     2  0.100000E-04  0.100000E-04  0.100000E-04
     1          1     2     2  0.100000E-04  0.100000E-04  0.100000E-04
     1          1     2     2  0.100000E-04  0.100000E-04  0.100000E-04
     1          1     2     2  0.100000E-04  0.100000E-04  0.100000E-04
     1          1     2     2  0.100000E-04  0.100000E-04  0.100000E-04
     1          1     2     2  0.100000E-04  0.100000E-04  0.100000E-04
     1          1     2     2  0.100000E-04  0.100000E-04  0.100000E-04
     1          1     2     2  0.100000E-04  0.100000E-04  0.100000E-04
     1          1     2     2  0.100000E-04  0.100000E-04  0.100000E-04
     1          1     2     2  0.100000E-04  0.100000E-04  0.100000E-04
     1          1     2     2  0.100000E-04  0.100000E-04  0.100000E-04
     1          1     2     2  0.100000E-04  0.100000E-04  0.100000E-04
     1          1     2     2  0.100000E-04  0.100000E-04  0.100000E-04
     1          1     2     2  0.100000E-04  0.100000E-04  0.100000E-04
     1          1     2     2  0.100000E-04  0.100000E-04  0.100000E-04
     1          2     1     2  0.200000E-04  0.200000E-04  0.100000E-04
     1          2     2     2  0.200000E-04  0.200000E-04  0.100000E-04
     1          2     2     2  0.200000E-04  0.200000E-04  0.100000E-04
     1          2     2     2  0.200000E-04  0.200000E-04  0.100000E-04
     1          2     2     2  0.200000E-04  0.200000E-04  0.100000E-04
     1          2     2     2  0.200000E-04  0.200000E-04  0.100000E-04
     1          2     2     2  0.200000E-04  0.200000E-04  0.100000E-04
     1          2     2     2  0.200000E-04  0.200000E-04  0.100000E-04
     1          2     2     2  0.200000E-04  0.200000E-04  0.100000E-04
     1          2     2     2  0.200000E-04  0.200000E-04  0.100000E-04
     1          2     2     2  0.200000E-04  0.200000E-04  0.100000E-04
     1          2     2     2  0.200000E-04  0.200000E-04  0.100000E-04
     1          2     2     2  0.200000E-04  0.200000E-04  0.100000E-04
     1          2     2     2  0.200000E-04  0.200000E-04  0.100000E-04
     1          2     2     2  0.200000E-04  0.200000E-04  0.100000E-04
     1          2     2     2  0.200000E-04  0.200000E-04  0.100000E-04
     1          2     2     2  0.200000E-04  0.200000E-04  0.100000E-04
     1          2     2     2  0.200000E-04  0.200000E-04  0.100000E-04
     1          2     2     2  0.200000E-04  0.200000E-04  0.100000E-04
     1          2     2     2  0.200000E-04  0.200000E-04  0.100000E-04
     1          2     2     2  0.200000E-04  0.200000E-04  0.100000E-04
     1          2     2     2  0.200000E-04  0.200000E-04  0.100000E-04
     1          2     2     2  0.200000E-04  0.200000E-04  0.100000E-04
     1          2     2     2  0.200000E-04  0.200000E-04  0.100000E-04
     1          2     2     2  0.200000E-04  0.200000E-04  0.100000E-04
     1          2     2     2  0.200000E-04  0.200000E-04  0.100000E-04
     1          2     2     2  0.200000E-04  0.200000E-04  0.100000E-04
     1          2     2     2  0.200000E-04  0.200000E-04  0.100000E-04
     1          2     2     2  0.200000E-04  0.200000E-04  0.100000E-04
     1          2     2     2  0.200000E-04  0.200000E-04  0.100000E-04
     1          2     2     2  0.200000E-04  0.200000E-04  0.100000E-04
     1          2     2     2  0.200000E-04  0.200000E-04  0.100000E-04
     1          2     2     2  0.200000E-04  0.200000E-04  0.100000E-04
     1          2     2     2  0.200000E-04  0.200000E-04  0.100000E-04
     1          2     2     2  0.200000E-04  0.200000E-04  0.100000E-04
     1          2     2     2  0.200000E-04  0.200000E-04  0.100000E-04
     1          2     2     2  0.200000E-04  0.200000E-04  0.100000E-04
     1          2     2     2  0.200000E-04  0.200000E-04  0.100000E-04
     1          2     2     2  0.200000E-04  0.200000E-04  0.100000E-04
     1          2     2     2  0.200000E-04  0.200000E-04  0.100000E-04
     1          2     2     2  0.200000E-04  0.200000E-04  0.100000E-04
     1          2     2     2  0.200000E-04  0.200000E-04  0.100000E-04
     1          2     2     2  0.200000E-04  0.200000E-04  0.100000E-04
     1          2     2     2  0.200000E-04  0.200000E-04  0.100000E-04
     1          2     2     2  0.200000E-04  0.200000E-04  0.100000E-04
     1          2     2     2  0.200000E-04  0.200000E-04  0.100000E-04
     1          2     2     2  0.200000E-04  0.200000E-04  0.100000E-04
     1          2     2     2  0.200000E-04  0.200000E-04  0.100000E-04
     1          2     2     2  0.200000E-04  0.200000E-04  0.100000E-04
     1          2     2     2  0.200000E-04  0.200000E-04  0.100000E-04
     1          2     2     2  0.200000E-04  0.200000E-04  0.100000E-04
     1          2     2     2  0.200000E-04  0.200000E-04  0.100000E-04
     1          2     2     2  0.200000E-04  0.200000E-04  0.100000E-04
     1          2     2     2  0.200000E-04  0.200000E-04  0.100000E-04
     1          2     2     2  0.200000E-04  0.200000E-04  0.100000E-04
     1          2     2     2  0.200000E-04  0.200000E-04  0.100000E-04
     1          2     2     2  0.200000E-04  0.200000E-04  0.100000E-04
     1          2     2     2  0.200000E-04  0.200000E-04  0.100000E-04
     1          2     2     2  0.200000E-04  0.200000E-04  0.100000E-04
     1          2     2     2  0.200000E-04  0.200000E-04  0.100000E-04
     1          2     2     2  0.200000E-04  0.200000E-04  0.100000E-04
     1          2     2     2  0.200000E-04  0.200000E-04  0.100000E-04
     1          2     2     2  0.200000E-04  0.200000E-04  0.100000E-04
     1          2     2     2  0.200000E-04  0.200000E-04  0.100000E-04
     1          2     2     2  0.200000E-04  0.200000E-04  0.100000E-04
     1          2     2     2  0.200000E-04  0.200000E-04  0.100000E-04
     1          2     2     2  0.200000E-04  0.200000E-04  0.100000E-04
     1          2     2     2  0.200000E-04  0.200000E-04  0.100000E-04
     1          2     2     2  0.200000E-04  0.200000E-04  0.100000E-04
     1          2     2     2  0.200000E-04  0.200000E-04  0.100000E-04
     1          2     2     2  0.200000E-04  0.200000E-04  0.100000E-04
     1          2     2     2  0.200000E-04  0.200000E-04  0.100000E-04
     1          2     2     2  0.200000E-04  0.200000E-04  0.100000E-04
     1          2     2     2  0.200000E-04  0.200000E-04  0.100000E-04
     1          2     2     2  0.200000E-04  0.200000E-04  0.100000E-04
     1          2     2     2  0.200000E-04  0.200000E-04  0.100000E-04
     1          2     2     2  0.200000E-04  0.200000E-04  0.100000E-04
     1          2     2     2  0.200000E-04  0.200000E-04  0.100000E-04
     1          2     2     2  0.200000E-04  0.200000E-04  0.100000E-04
     1          2     2     2  0.200000E-04  0.200000E-04  0.100000E-04
     1          2     2     2  0.200000E-04  0.200000E-04  0.100000E-04
     1          2     2     2  0.200000E-04  0.200000E-04  0.100000E-04
     1          2     2     2  0.200000E-04  0.200000E-04  0.100000E-04
     1          2     2     2  0.200000E-04  0.200000E-04  0.100000E-04
     1          2     2     2  0.200000E-04  0.200000E-04  0.100000E-04
     1          2     2     2  0.200000E-04  0.200000E-04  0.100000E-04
     1          2     2     2  0.200000E-04  0.200000E-04  0.100000E-04
     1          2     2     2  0.200000E-04  0.200000E-04  0.100000E-04
     1          2     2     2  0.200000E-04  0.200000E-04  0.100000E-04
     1          2     2     2  0.200000E-04  0.200000E-04  0.100000E-04
     1          2     2     2  0.200000E-04  0.200000E-04  0.100000E-04
     1          2     2     2  0.200000E-04  0.200000E-04  0.100000E-04
     1          2     2     2  0.200000E-04  0.200000E-04  0.100000E-04
     1          2     2     2  0.200000E-04  0.200000E-04  0.100000E-04
     1          2     2     2  0.200000E-04  0.200000E-04  0.100000E-04
     1          2     2     2  0.200000E-04  0.200000E-04  0.100000E-04
     1          2     2     2  0.200000E-04  0.200000E-04  0.100000E-04
     1          2     2     2  0.200000E-04  0.200000E-04  0.100000E-04
     1          2     2     2  0.200000E-04  0.200000E-04  0.100000E-04
     1          2     2     2  0.200000E-04  0.200000E-04  0.100000E-04
     1          3     1     2  0.300000E-04  0.300000E-04  0.100000E-04
     1          3     2     2  0.300000E-04  0.300000E-04  0.100000E-04
     1          3     2     2  0.300000E-04  0.300000E-04  0.100000E-04
     1          3     2     2  0.300000E-04  0.300000E-04  0.100000E-04
     1          3     2     2  0.300000E-04  0.300000E-04  0.100000E-04
     1          3     2     2  0.300000E-04  0.300000E-04  0.100000E-04
     1          3     2     2  0.300000E-04  0.300000E-04  0.100000E-04
     1          3     2     2  0.300000E-04  0.300000E-04  0.100000E-04
     1          3     2     2  0.300000E-04  0.300000E-04  0.100000E-04
     1          3     2     2  0.300000E-04  0.300000E-04  0.100000E-04
     1          3     2     2  0.300000E-04  0.300000E-04  0.100000E-04
     1          3     2     2  0.300000E-04  0.300000E-04  0.100000E-04
     1          3     2     2  0.300000E-04  0.300000E-04  0.100000E-04
     1          3     2     2  0.300000E-04  0.300000E-04  0.100000E-04
     1          3     2     2  0.300000E-04  0.300000E-04  0.100000E-04
     1          3     2     2  0.300000E-04  0.300000E-04  0.100000E-04
     1          3     2     2  0.300000E-04  0.300000E-04  0.100000E-04
     1          3     2     2  0.300000E-04  0.300000E-04  0.100000E-04
     1          3     2     2  0.300000E-04  0.300000E-04  0.100000E-04
     1          3     2     2  0.300000E-04  0.300000E-04  0.100000E-04
     1          3     2     2  0.300000E-04  0.300000E-04  0.100000E-04
     1          3     2     2  0.300000E-04  0.300000E-04  0.100000E-04
     1          3     2     2  0.300000E-04  0.300000E-04  0.100000E-04
     1          3     2     2  0.300000E-04  0.300000E-04  0.100000E-04
     1          3     2     2  0.300000E-04  0.300000E-04  0.100000E-04
     1          3     2     2  0.300000E-04  0.300000E-04  0.100000E-04
     1          4     1     2  0.400000E-04  0.400000E-04  0.100000E-04
     1          4     2     2  0.400000E-04  0.400000E-04  0.100000E-04
     1          4     2     2  0.400000E-04  0.400000E-04  0.100000E-04
     1          4     2     2  0.400000E-04  0.400000E-04  0.100000E-04
     1          4     2     2  0.400000E-04  0.400000E-04  0.100000E-04
     1          4     2     2  0.400000E-04  0.400000E-04  0.100000E-04
     1          4     2     2  0.400000E-04  0.400000E-04  0.100000E-04
     1          4     2     2  0.400000E-04  0.400000E-04  0.100000E-04
     1          4     2     2  0.400000E-04  0.400000E-04  0.100000E-04
     1          4     2     2  0.400000E-04  0.400000E-04  0.100000E-04
     1          4     2     2  0.400000E-04  0.400000E-04  0.100000E-04
     1          5     1     2  0.500000E-04  0.500000E-04  0.100000E-04
     1          5     2     2  0.500000E-04  0.500000E-04  0.100000E-04
     1          5     2     2  0.500000E-04  0.500000E-04  0.100000E-04
     1          5     2     2  0.500000E-04  0.500000E-04  0.100000E-04
     1          5     2     2  0.500000E-04  0.500000E-04  0.100000E-04
     1          5     2     2  0.500000E-04  0.500000E-04  0.100000E-04
     1          6     1     2  0.600000E-04  0.600000E-04  0.100000E-04
     1          6     2     2  0.600000E-04  0.600000E-04  0.100000E-04
     1          6     2     2  0.600000E-04  0.600000E-04  0.100000E-04
     1          6     2     2  0.600000E-04  0.600000E-04  0.100000E-04
     1          6     2     2  0.600000E-04  0.600000E-04  0.100000E-04
     1          6     2     2  0.600000E-04  0.600000E-04  0.100000E-04
     1          7     1     2  0.700000E-04  0.700000E-04  0.100000E-04
     1          7     2     2  0.700000E-04  0.700000E-04  0.100000E-04
     1          7     2     2  0.700000E-04  0.700000E-04  0.100000E-04
     1          7     2     2  0.700000E-04  0.700000E-04  0.100000E-04
     1          7     2     2  0.700000E-04  0.700000E-04  0.100000E-04
     1          8     1     2  0.800000E-04  0.800000E-04  0.100000E-04
     1          8     2     2  0.800000E-04  0.800000E-04  0.100000E-04
     1          8     2     2  0.800000E-04  0.800000E-04  0.100000E-04
     1          8     2     2  0.800000E-04  0.800000E-04  0.100000E-04
     1          8     2     2  0.800000E-04  0.800000E-04  0.100000E-04
     1          8     2     2  0.800000E-04  0.800000E-04  0.100000E-04
     1          9     1     2  0.900000E-04  0.900000E-04  0.100000E-04
     1          9     2     2  0.900000E-04  0.900000E-04  0.100000E-04
     1          9     2     2  0.900000E-04  0.900000E-04  0.100000E-04
     1          9     2     2  0.900000E-04  0.900000E-04  0.100000E-04
     1          9     2     2  0.900000E-04  0.900000E-04  0.100000E-04
     1         10     1     2  0.100000E-03  0.100000E-03  0.100000E-04
     1         10     2     2  0.100000E-03  0.100000E-03  0.100000E-04
     1         10     2     2  0.100000E-03  0.100000E-03  0.100000E-04
     1         10     2     2  0.100000E-03  0.100000E-03  0.100000E-04
     1         10     2     2  0.100000E-03  0.100000E-03  0.100000E-04
     1         11     1     2  0.110000E-03  0.110000E-03  0.100000E-04
     1         11     2     2  0.110000E-03  0.110000E-03  0.100000E-04
     1         11     2     2  0.110000E-03  0.110000E-03  0.100000E-04
     1         11     2     2  0.110000E-03  0.110000E-03  0.100000E-04
     1         12     1     2  0.120000E-03  0.120000E-03  0.100000E-04
     1         12     2     2  0.120000E-03  0.120000E-03  0.100000E-04
     1         12     2     2  0.120000E-03  0.120000E-03  0.100000E-04
     1         12     2     2  0.120000E-03  0.120000E-03  0.100000E-04
     1         13     1     2  0.130000E-03  0.130000E-03  0.100000E-04
     1         13     2     2  0.130000E-03  0.130000E-03  0.100000E-04
     1         13     2     2  0.130000E-03  0.130000E-03  0.100000E-04
     1         13     2     2  0.130000E-03  0.130000E-03  0.100000E-04
     1         14     1     2  0.140000E-03  0.140000E-03  0.100000E-04
     1         14     2     2  0.140000E-03  0.140000E-03  0.100000E-04
     1         14     2     2  0.140000E-03  0.140000E-03  0.100000E-04
     1         14     2     2  0.140000E-03  0.140000E-03  0.100000E-04
     1         14     2     2  0.140000E-03  0.140000E-03  0.100000E-04
     1         15     1     2  0.150000E-03  0.150000E-03  0.100000E-04
     1         15     2     2  0.150000E-03  0.150000E-03  0.100000E-04
     1         15     2     2  0.150000E-03  0.150000E-03  0.100000E-04
     1         15     2     2  0.150000E-03  0.150000E-03  0.100000E-04
     1         16     1     2  0.160000E-03  0.160000E-03  0.100000E-04
     1         16     2     2  0.160000E-03  0.160000E-03  0.100000E-04
     1         16     2     2  0.160000E-03  0.160000E-03  0.100000E-04
     1         16     2     2  0.160000E-03  0.160000E-03  0.100000E-04
     1         17     1     2  0.170000E-03  0.170000E-03  0.100000E-04
     1         17     2     2  0.170000E-03  0.170000E-03  0.100000E-04
     1         17     2     2  0.170000E-03  0.170000E-03  0.100000E-04
     1         17     2     2  0.170000E-03  0.170000E-03  0.100000E-04
     1         18     1     2  0.180000E-03  0.180000E-03  0.100000E-04
     1         18     2     2  0.180000E-03  0.180000E-03  0.100000E-04
     1         18     2     2  0.180000E-03  0.180000E-03  0.100000E-04
     1         18     2     2  0.180000E-03  0.180000E-03  0.100000E-04
     1         18     2     2  0.180000E-03  0.180000E-03  0.100000E-04
     1         19     1     2  0.190000E-03  0.190000E-03  0.100000E-04
     1         19     2     2  0.190000E-03  0.190000E-03  0.100000E-04
     1         19     2     2  0.190000E-03  0.190000E-03  0.100000E-04
     1         19     2     2  0.190000E-03  0.190000E-03  0.100000E-04
     1         19     2     2  0.190000E-03  0.190000E-03  0.100000E-04
     1         20     1     2  0.200000E-03  0.200000E-03  0.100000E-04
     1         20     2     2  0.200000E-03  0.200000E-03  0.100000E-04
     1         20     2     2  0.200000E-03  0.200000E-03  0.100000E-04
     1         20     2     2  0.200000E-03  0.200000E-03  0.100000E-04
     1         20     2     2  0.200000E-03  0.200000E-03  0.100000E-04
     1         21     1     2  0.210000E-03  0.210000E-03  0.100000E-04
     1         21     2     2  0.210000E-03  0.210000E-03  0.100000E-04
     1         21     2     2  0.210000E-03  0.210000E-03  0.100000E-04
     1         21     2     2  0.210000E-03  0.210000E-03  0.100000E-04
     1         22     1     2  0.220000E-03  0.220000E-03  0.100000E-04
     1         22     2     2  0.220000E-03  0.220000E-03  0.100000E-04
     1         22     2     2  0.220000E-03  0.220000E-03  0.100000E-04
     1         22     2     2  0.220000E-03  0.220000E-03  0.100000E-04
     1         23     1     2  0.230000E-03  0.230000E-03  0.100000E-04
     1         23     2     2  0.230000E-03  0.230000E-03  0.100000E-04
     1         23     2     2  0.230000E-03  0.230000E-03  0.100000E-04
     1         23     2     2  0.230000E-03  0.230000E-03  0.100000E-04
     1         23     2     2  0.230000E-03  0.230000E-03  0.100000E-04
     1         24     1     2  0.240000E-03  0.240000E-03  0.100000E-04
     1         24     2     2  0.240000E-03  0.240000E-03  0.100000E-04
     1         24     2     2  0.240000E-03  0.240000E-03  0.100000E-04
     1         24     2     2  0.240000E-03  0.240000E-03  0.100000E-04
     1         24     2     2  0.240000E-03  0.240000E-03  0.100000E-04
     1         25     1     2  0.250000E-03  0.250000E-03  0.100000E-04
     1         25     2     2  0.250000E-03  0.250000E-03  0.100000E-04
     1         25     2     2  0.250000E-03  0.250000E-03  0.100000E-04
     1         25     2     2  0.250000E-03  0.250000E-03  0.100000E-04
     1         26     1     2  0.260000E-03  0.260000E-03  0.100000E-04
     1         26     2     2  0.260000E-03  0.260000E-03  0.100000E-04
     1         26     2     2  0.260000E-03  0.260000E-03  0.100000E-04
     1         26     2     2  0.260000E-03  0.260000E-03  0.100000E-04
     1         27     1     2  0.270000E-03  0.270000E-03  0.100000E-04
     1         27     2     2  0.270000E-03  0.270000E-03  0.100000E-04
     1         27     2     2  0.270000E-03  0.270000E-03  0.100000E-04
     1         27     2     2  0.270000E-03  0.270000E-03  0.100000E-04
     1         27     2     2  0.270000E-03  0.270000E-03  0.100000E-04
     1         28     1     2  0.280000E-03  0.280000E-03  0.100000E-04
     1         28     2     2  0.280000E-03  0.280000E-03  0.100000E-04
     1         28     2     2  0.280000E-03  0.280000E-03  0.100000E-04
     1         28     2     2  0.280000E-03  0.280000E-03  0.100000E-04
     1         28     2     2  0.280000E-03  0.280000E-03  0.100000E-04
     1         29     1     2  0.290000E-03  0.290000E-03  0.100000E-04
     1         29     2     2  0.290000E-03  0.290000E-03  0.100000E-04
     1         29     2     2  0.290000E-03  0.290000E-03  0.100000E-04
     1         29     2     2  0.290000E-03  0.290000E-03  0.100000E-04
     1         30     1     2  0.300000E-03  0.300000E-03  0.100000E-04
     1         30     2     2  0.300000E-03  0.300000E-03  0.100000E-04
     1         30     2     2  0.300000E-03  0.300000E-03  0.100000E-04
     1         30     2     2  0.300000E-03  0.300000E-03  0.100000E-04
     1         31     1     2  0.310000E-03  0.310000E-03  0.100000E-04
     1         31     2     2  0.310000E-03  0.310000E-03  0.100000E-04
     1         31     2     2  0.310000E-03  0.310000E-03  0.100000E-04
     1         31     2     2  0.310000E-03  0.310000E-03  0.100000E-04
     1         32     1     2  0.320000E-03  0.320000E-03  0.100000E-04
     1         32     2     2  0.320000E-03  0.320000E-03  0.100000E-04
     1         32     2     2  0.320000E-03  0.320000E-03  0.100000E-04
     1         32     2     2  0.320000E-03  0.320000E-03  0.100000E-04
     1         33     1     2  0.330000E-03  0.330000E-03  0.100000E-04
     1         33     2     2  0.330000E-03  0.330000E-03  0.100000E-04
     1         33     2     2  0.330000E-03  0.330000E-03  0.100000E-04
     1         33     2     2  0.330000E-03  0.330000E-03  0.100000E-04
     1         34     1     2  0.340000E-03  0.340000E-03  0.100000E-04
     1         34     2     2  0.340000E-03  0.340000E-03  0.100000E-04
     1         34     2     2  0.340000E-03  0.340000E-03  0.100000E-04
     1         34     2     2  0.340000E-03  0.340000E-03  0.100000E-04
     1         35     1     2  0.350000E-03  0.350000E-03  0.100000E-04
     1         35     2     2  0.350000E-03  0.350000E-03  0.100000E-04
     1         35     2     2  0.350000E-03  0.350000E-03  0.100000E-04
     1         35     2     2  0.350000E-03  0.350000E-03  0.100000E-04
     1         36     1     2  0.360000E-03  0.360000E-03  0.100000E-04
     1         36     2     2  0.360000E-03  0.360000E-03  0.100000E-04
     1         36     2     2  0.360000E-03  0.360000E-03  0.100000E-04
     1         36     2     2  0.360000E-03  0.360000E-03  0.100000E-04
     1         37     1     2  0.370000E-03  0.370000E-03  0.100000E-04
     1         37     2     2  0.370000E-03  0.370000E-03  0.100000E-04
     1         37     2     2  0.370000E-03  0.370000E-03  0.100000E-04
     1         37     2     2  0.370000E-03  0.370000E-03  0.100000E-04
     1         38     1     2  0.380000E-03  0.380000E-03  0.100000E-04
     1         38     2     2  0.380000E-03  0.380000E-03  0.100000E-04
     1         38     2     2  0.380000E-03  0.380000E-03  0.100000E-04
     1         38     2     2  0.380000E-03  0.380000E-03  0.100000E-04
     1         39     1     2  0.390000E-03  0.390000E-03  0.100000E-04
     1         39     2     2  0.390000E-03  0.390000E-03  0.100000E-04
     1         39     2     2  0.390000E-03  0.390000E-03  0.100000E-04
     1         39     2     2  0.390000E-03  0.390000E-03  0.100000E-04
     1         40     1     2  0.400000E-03  0.400000E-03  0.100000E-04
     1         40     2     2  0.400000E-03  0.400000E-03  0.100000E-04
     1         40     2     2  0.400000E-03  0.400000E-03  0.100000E-04
     1         40     2     2  0.400000E-03  0.400000E-03  0.100000E-04
     1         41     1     2  0.410000E-03  0.410000E-03  0.100000E-04
     1         41     2     2  0.410000E-03  0.410000E-03  0.100000E-04
     1         41     2     2  0.410000E-03  0.410000E-03  0.100000E-04
     1         41     2     2  0.410000E-03  0.410000E-03  0.100000E-04
     1         42     1     2  0.420000E-03  0.420000E-03  0.100000E-04
     1         42     2     2  0.420000E-03  0.420000E-03  0.100000E-04
     1         42     2     2  0.420000E-03  0.420000E-03  0.100000E-04
     1         42     2     2  0.420000E-03  0.420000E-03  0.100000E-04
     1         43     1     2  0.430000E-03  0.430000E-03  0.100000E-04
     1         43     2     2  0.430000E-03  0.430000E-03  0.100000E-04
     1         43     2     2  0.430000E-03  0.430000E-03  0.100000E-04
     1         44     1     2  0.440000E-03  0.440000E-03  0.100000E-04
     1         44     2     2  0.440000E-03  0.440000E-03  0.100000E-04
     1         44     2     2  0.440000E-03  0.440000E-03  0.100000E-04
     1         44     2     2  0.440000E-03  0.440000E-03  0.100000E-04
     1         45     1     2  0.450000E-03  0.450000E-03  0.100000E-04
     1         45     2     2  0.450000E-03  0.450000E-03  0.100000E-04
     1         45     2     2  0.450000E-03  0.450000E-03  0.100000E-04
     1         45     2     2  0.450000E-03  0.450000E-03  0.100000E-04
     1         46     1     2  0.460000E-03  0.460000E-03  0.100000E-04
     1         46     2     2  0.460000E-03  0.460000E-03  0.100000E-04
     1         46     2     2  0.460000E-03  0.460000E-03  0.100000E-04
     1         46     2     2  0.460000E-03  0.460000E-03  0.100000E-04
     1         47     1     2  0.470000E-03  0.470000E-03  0.100000E-04
     1         47     2     2  0.470000E-03  0.470000E-03  0.100000E-04
     1         47     2     2  0.470000E-03  0.470000E-03  0.100000E-04
     1         47     2     2  0.470000E-03  0.470000E-03  0.100000E-04
     1         48     1     2  0.480000E-03  0.480000E-03  0.100000E-04
     1         48     2     2  0.480000E-03  0.480000E-03  0.100000E-04
     1         48     2     2  0.480000E-03  0.480000E-03  0.100000E-04
     1         48     2     2  0.480000E-03  0.480000E-03  0.100000E-04
     1         49     1     2  0.490000E-03  0.490000E-03  0.100000E-04
     1         49     2     2  0.490000E-03  0.490000E-03  0.100000E-04
     1         49     2     2  0.490000E-03  0.490000E-03  0.100000E-04
     1         49     2     2  0.490000E-03  0.490000E-03  0.100000E-04
     1         50     1     2  0.500000E-03  0.500000E-03  0.100000E-04
     1         50     2     2  0.500000E-03  0.500000E-03  0.100000E-04
     1         50     2     2  0.500000E-03  0.500000E-03  0.100000E-04
     1         50     2     2  0.500000E-03  0.500000E-03  0.100000E-04
     1         51     1     2  0.510000E-03  0.510000E-03  0.100000E-04
     1         51     2     2  0.510000E-03  0.510000E-03  0.100000E-04
     1         51     2     2  0.510000E-03  0.510000E-03  0.100000E-04
     1         51     2     2  0.510000E-03  0.510000E-03  0.100000E-04
     1         52     1     2  0.520000E-03  0.520000E-03  0.100000E-04
     1         52     2     2  0.520000E-03  0.520000E-03  0.100000E-04
     1         52     2     2  0.520000E-03  0.520000E-03  0.100000E-04
     1         52     2     2  0.520000E-03  0.520000E-03  0.100000E-04
     1         53     1     2  0.530000E-03  0.530000E-03  0.100000E-04
     1         53     2     2  0.530000E-03  0.530000E-03  0.100000E-04
     1         53     2     2  0.530000E-03  0.530000E-03  0.100000E-04
     1         53     2     2  0.530000E-03  0.530000E-03  0.100000E-04
     1         54     1     2  0.540000E-03  0.540000E-03  0.100000E-04
     1         54     2     2  0.540000E-03  0.540000E-03  0.100000E-04
     1         54     2     2  0.540000E-03  0.540000E-03  0.100000E-04
     1         54     2     2  0.540000E-03  0.540000E-03  0.100000E-04
     1         55     1     2  0.550000E-03  0.550000E-03  0.100000E-04
     1         55     2     2  0.550000E-03  0.550000E-03  0.100000E-04
     1         55     2     2  0.550000E-03  0.550000E-03  0.100000E-04
     1         55     2     2  0.550000E-03  0.550000E-03  0.100000E-04
     1         56     1     2  0.560000E-03  0.560000E-03  0.100000E-04
     1         56     2     2  0.560000E-03  0.560000E-03  0.100000E-04
     1         56     2     2  0.560000E-03  0.560000E-03  0.100000E-04
     1         57     1     2  0.570000E-03  0.570000E-03  0.100000E-04
     1         57     2     2  0.570000E-03  0.570000E-03  0.100000E-04
     1         57     2     2  0.570000E-03  0.570000E-03  0.100000E-04
     1         57     2     2  0.570000E-03  0.570000E-03  0.100000E-04
     1         58     1     2  0.580000E-03  0.580000E-03  0.100000E-04
     1         58     2     2  0.580000E-03  0.580000E-03  0.100000E-04
     1         58     2     2  0.580000E-03  0.580000E-03  0.100000E-04
     1         58     2     2  0.580000E-03  0.580000E-03  0.100000E-04
     1         59     1     2  0.590000E-03  0.590000E-03  0.100000E-04
     1         59     2     2  0.590000E-03  0.590000E-03  0.100000E-04
     1         59     2     2  0.590000E-03  0.590000E-03  0.100000E-04
     1         60     1     2  0.600000E-03  0.600000E-03  0.100000E-04
     1         60     2     2  0.600000E-03  0.600000E-03  0.100000E-04
     1         60     2     2  0.600000E-03  0.600000E-03  0.100000E-04
     1         60     2     2  0.600000E-03  0.600000E-03  0.100000E-04
     1         61     1     2  0.610000E-03  0.610000E-03  0.100000E-04
     1         61     2     2  0.610000E-03  0.610000E-03  0.100000E-04
     1         61     2     2  0.610000E-03  0.610000E-03  0.100000E-04
     1         61     2     2  0.610000E-03  0.610000E-03  0.100000E-04
     1         62     1     2  0.620000E-03  0.620000E-03  0.100000E-04
     1         62     2     2  0.620000E-03  0.620000E-03  0.100000E-04
     1         62     2     2  0.620000E-03  0.620000E-03  0.100000E-04
     1         62     2     2  0.620000E-03  0.620000E-03  0.100000E-04
     1         63     1     2  0.630000E-03  0.630000E-03  0.100000E-04
     1         63     2     2  0.630000E-03  0.630000E-03  0.100000E-04
     1         63     2     2  0.630000E-03  0.630000E-03  0.100000E-04
     1         63     2     2  0.630000E-03  0.630000E-03  0.100000E-04
     1         64     1     2  0.640000E-03  0.640000E-03  0.100000E-04
     1         64     2     2  0.640000E-03  0.640000E-03  0.100000E-04
     1         64     2     2  0.640000E-03  0.640000E-03  0.100000E-04
     1         64     2     2  0.640000E-03  0.640000E-03  0.100000E-04
     1         65     1     2  0.650000E-03  0.650000E-03  0.100000E-04
     1         65     2     2  0.650000E-03  0.650000E-03  0.100000E-04
     1         65     2     2  0.650000E-03  0.650000E-03  0.100000E-04
     1         65     2     2  0.650000E-03  0.650000E-03  0.100000E-04
     1         66     1     2  0.660000E-03  0.660000E-03  0.100000E-04
     1         66     2     2  0.660000E-03  0.660000E-03  0.100000E-04
     1         66     2     2  0.660000E-03  0.660000E-03  0.100000E-04
     1         66     2     2  0.660000E-03  0.660000E-03  0.100000E-04
     1         67     1     2  0.670000E-03  0.670000E-03  0.100000E-04
     1         67     2     2  0.670000E-03  0.670000E-03  0.100000E-04
     1         67     2     2  0.670000E-03  0.670000E-03  0.100000E-04
     1         67     2     2  0.670000E-03  0.670000E-03  0.100000E-04
     1         68     1     2  0.680000E-03  0.680000E-03  0.100000E-04
     1         68     2     2  0.680000E-03  0.680000E-03  0.100000E-04
     1         68     2     2  0.680000E-03  0.680000E-03  0.100000E-04
     1         69     1     2  0.690000E-03  0.690000E-03  0.100000E-04
     1         69     2     2  0.690000E-03  0.690000E-03  0.100000E-04
     1         69     2     2  0.690000E-03  0.690000E-03  0.100000E-04
     1         69     2     2  0.690000E-03  0.690000E-03  0.100000E-04
     1         70     1     2  0.700000E-03  0.700000E-03  0.100000E-04
     1         70     2     2  0.700000E-03  0.700000E-03  0.100000E-04
     1         70     2     2  0.700000E-03  0.700000E-03  0.100000E-04
     1         70     2     2  0.700000E-03  0.700000E-03  0.100000E-04
     1         71     1     2  0.710000E-03  0.710000E-03  0.100000E-04
     1         71     2     2  0.710000E-03  0.710000E-03  0.100000E-04
     1         71     2     2  0.710000E-03  0.710000E-03  0.100000E-04
     1         71     2     2  0.710000E-03  0.710000E-03  0.100000E-04
     1         72     1     2  0.720000E-03  0.720000E-03  0.100000E-04
     1         72     2     2  0.720000E-03  0.720000E-03  0.100000E-04
     1         72     2     2  0.720000E-03  0.720000E-03  0.100000E-04
     1         72     2     2  0.720000E-03  0.720000E-03  0.100000E-04
     1         73     1     2  0.730000E-03  0.730000E-03  0.100000E-04
     1         73     2     2  0.730000E-03  0.730000E-03  0.100000E-04
     1         73     2     2  0.730000E-03  0.730000E-03  0.100000E-04
     1         73     2     2  0.730000E-03  0.730000E-03  0.100000E-04
     1         74     1     2  0.740000E-03  0.740000E-03  0.100000E-04
     1         74     2     2  0.740000E-03  0.740000E-03  0.100000E-04
     1         74     2     2  0.740000E-03  0.740000E-03  0.100000E-04
     1         74     2     2  0.740000E-03  0.740000E-03  0.100000E-04
     1         75     1     2  0.750000E-03  0.750000E-03  0.100000E-04
     1         75     2     2  0.750000E-03  0.750000E-03  0.100000E-04
     1         75     2     2  0.750000E-03  0.750000E-03  0.100000E-04
     1         76     1     2  0.760000E-03  0.760000E-03  0.100000E-04
     1         76     2     2  0.760000E-03  0.760000E-03  0.100000E-04
     1         76     2     2  0.760000E-03  0.760000E-03  0.100000E-04
     1         76     2     2  0.760000E-03  0.760000E-03  0.100000E-04
     1         77     1     2  0.770000E-03  0.770000E-03  0.100000E-04
     1         77     2     2  0.770000E-03  0.770000E-03  0.100000E-04
     1         77     2     2  0.770000E-03  0.770000E-03  0.100000E-04
     1         78     1     2  0.780000E-03  0.780000E-03  0.100000E-04
     1         78     2     2  0.780000E-03  0.780000E-03  0.100000E-04
     1         78     2     2  0.780000E-03  0.780000E-03  0.100000E-04
     1         79     1     2  0.790000E-03  0.790000E-03  0.100000E-04
     1         79     2     2  0.790000E-03  0.790000E-03  0.100000E-04
     1         79     2     2  0.790000E-03  0.790000E-03  0.100000E-04
     1         79     2     2  0.790000E-03  0.790000E-03  0.100000E-04
     1         80     1     2  0.800000E-03  0.800000E-03  0.100000E-04
     1         80     2     2  0.800000E-03  0.800000E-03  0.100000E-04
     1         80     2     2  0.800000E-03  0.800000E-03  0.100000E-04
     1         80     2     2  0.800000E-03  0.800000E-03  0.100000E-04
     1         81     1     2  0.810000E-03  0.810000E-03  0.100000E-04
     1         81     2     2  0.810000E-03  0.810000E-03  0.100000E-04
     1         81     2     2  0.810000E-03  0.810000E-03  0.100000E-04
     1         81     2     2  0.810000E-03  0.810000E-03  0.100000E-04
     1         82     1     2  0.820000E-03  0.820000E-03  0.100000E-04
     1         82     2     2  0.820000E-03  0.820000E-03  0.100000E-04
     1         82     2     2  0.820000E-03  0.820000E-03  0.100000E-04
     1         82     2     2  0.820000E-03  0.820000E-03  0.100000E-04
     1         83     1     2  0.830000E-03  0.830000E-03  0.100000E-04
     1         83     2     2  0.830000E-03  0.830000E-03  0.100000E-04
     1         83     2     2  0.830000E-03  0.830000E-03  0.100000E-04
     1         83     2     2  0.830000E-03  0.830000E-03  0.100000E-04
     1         84     1     2  0.840000E-03  0.840000E-03  0.100000E-04
     1         84     2     2  0.840000E-03  0.840000E-03  0.100000E-04
     1         84     2     2  0.840000E-03  0.840000E-03  0.100000E-04
     1         85     1     2  0.850000E-03  0.850000E-03  0.100000E-04
     1         85     2     2  0.850000E-03  0.850000E-03  0.100000E-04
     1         85     2     2  0.850000E-03  0.850000E-03  0.100000E-04
     1         85     2     2  0.850000E-03  0.850000E-03  0.100000E-04
     1         86     1     2  0.860000E-03  0.860000E-03  0.100000E-04
     1         86     2     2  0.860000E-03  0.860000E-03  0.100000E-04
     1         86     2     2  0.860000E-03  0.860000E-03  0.100000E-04
     1         87     1     2  0.870000E-03  0.870000E-03  0.100000E-04
     1         87     2     2  0.870000E-03  0.870000E-03  0.100000E-04
     1         87     2     2  0.870000E-03  0.870000E-03  0.100000E-04
     1         87     2     2  0.870000E-03  0.870000E-03  0.100000E-04
     1         88     1     2  0.880000E-03  0.880000E-03  0.100000E-04
     1         88     2     2  0.880000E-03  0.880000E-03  0.100000E-04
     1         88     2     2  0.880000E-03  0.880000E-03  0.100000E-04
     1         88     2     2  0.880000E-03  0.880000E-03  0.100000E-04
     1         89     1     2  0.890000E-03  0.890000E-03  0.100000E-04
     1         89     2     2  0.890000E-03  0.890000E-03  0.100000E-04
     1         89     2     2  0.890000E-03  0.890000E-03  0.100000E-04
     1         89     2     2  0.890000E-03  0.890000E-03  0.100000E-04
     1         90     1     2  0.900000E-03  0.900000E-03  0.100000E-04
     1         90     2     2  0.900000E-03  0.900000E-03  0.100000E-04
     1         90     2     2  0.900000E-03  0.900000E-03  0.100000E-04
     1         90     2     2  0.900000E-03  0.900000E-03  0.100000E-04
     1         91     1     2  0.910000E-03  0.910000E-03  0.100000E-04
     1         91     2     2  0.910000E-03  0.910000E-03  0.100000E-04
     1         91     2     2  0.910000E-03  0.910000E-03  0.100000E-04
     1         91     2     2  0.910000E-03  0.910000E-03  0.100000E-04
     1         92     1     2  0.920000E-03  0.920000E-03  0.100000E-04
     1         92     2     2  0.920000E-03  0.920000E-03  0.100000E-04
     1         92     2     2  0.920000E-03  0.920000E-03  0.100000E-04
     1         92     2     2  0.920000E-03  0.920000E-03  0.100000E-04
     1         93     1     2  0.930000E-03  0.930000E-03  0.100000E-04
     1         93     2     2  0.930000E-03  0.930000E-03  0.100000E-04
     1         93     2     2  0.930000E-03  0.930000E-03  0.100000E-04
     1         93     2     2  0.930000E-03  0.930000E-03  0.100000E-04
     1         94     1     2  0.940000E-03  0.940000E-03  0.100000E-04
     1         94     2     2  0.940000E-03  0.940000E-03  0.100000E-04
     1         94     2     2  0.940000E-03  0.940000E-03  0.100000E-04
     1         95     1     2  0.950000E-03  0.950000E-03  0.100000E-04
     1         95     2     2  0.950000E-03  0.950000E-03  0.100000E-04
     1         95     2     2  0.950000E-03  0.950000E-03  0.100000E-04
     1         95     2     2  0.950000E-03  0.950000E-03  0.100000E-04
     1         96     1     2  0.960000E-03  0.960000E-03  0.100000E-04
     1         96     2     2  0.960000E-03  0.960000E-03  0.100000E-04
     1         96     2     2  0.960000E-03  0.960000E-03  0.100000E-04
     1         97     1     2  0.970000E-03  0.970000E-03  0.100000E-04
     1         97     2     2  0.970000E-03  0.970000E-03  0.100000E-04
     1         97     2     2  0.970000E-03  0.970000E-03  0.100000E-04
     1         98     1     2  0.980000E-03  0.980000E-03  0.100000E-04
     1         98     2     2  0.980000E-03  0.980000E-03  0.100000E-04
     1         98     2     2  0.980000E-03  0.980000E-03  0.100000E-04
     1         98     2     2  0.980000E-03  0.980000E-03  0.100000E-04
     1         99     1     2  0.990000E-03  0.990000E-03  0.100000E-04
     1         99     2     2  0.990000E-03  0.990000E-03  0.100000E-04
     1         99     2     2  0.990000E-03  0.990000E-03  0.100000E-04
     1         99     2     2  0.990000E-03  0.990000E-03  0.100000E-04
     1        100     1     2  0.100000E-02  0.100000E-02  0.100000E-04
     1        100     2     2  0.100000E-02  0.100000E-02  0.100000E-04
     1        100     2     2  0.100000E-02  0.100000E-02  0.100000E-04
     1        101     1     2  0.101000E-02  0.101000E-02  0.100000E-04
     1        101     2     2  0.101000E-02  0.101000E-02  0.100000E-04
     1        101     2     2  0.101000E-02  0.101000E-02  0.100000E-04
     1        101     2     2  0.101000E-02  0.101000E-02  0.100000E-04
     1        102     1     2  0.102000E-02  0.102000E-02  0.100000E-04
     1        102     2     2  0.102000E-02  0.102000E-02  0.100000E-04
     1        102     2     2  0.102000E-02  0.102000E-02  0.100000E-04
     1        102     2     2  0.102000E-02  0.102000E-02  0.100000E-04
     1        103     1     2  0.103000E-02  0.103000E-02  0.100000E-04
     1        103     2     2  0.103000E-02  0.103000E-02  0.100000E-04
     1        103     2     2  0.103000E-02  0.103000E-02  0.100000E-04
     1        104     1     2  0.104000E-02  0.104000E-02  0.100000E-04
     1        104     2     2  0.104000E-02  0.104000E-02  0.100000E-04
     1        104     2     2  0.104000E-02  0.104000E-02  0.100000E-04
     1        104     2     2  0.104000E-02  0.104000E-02  0.100000E-04
     1        105     1     2  0.105000E-02  0.105000E-02  0.100000E-04
     1        105     2     2  0.105000E-02  0.105000E-02  0.100000E-04
     1        105     2     2  0.105000E-02  0.105000E-02  0.100000E-04
     1        105     2     2  0.105000E-02  0.105000E-02  0.100000E-04
     1        106     1     2  0.106000E-02  0.106000E-02  0.100000E-04
     1        106     2     2  0.106000E-02  0.106000E-02  0.100000E-04
     1        106     2     2  0.106000E-02  0.106000E-02  0.100000E-04
     1        106     2     2  0.106000E-02  0.106000E-02  0.100000E-04
     1        107     1     2  0.107000E-02  0.107000E-02  0.100000E-04
     1        107     2     2  0.107000E-02  0.107000E-02  0.100000E-04
     1        107     2     2  0.107000E-02  0.107000E-02  0.100000E-04
     1        107     2     2  0.107000E-02  0.107000E-02  0.100000E-04
     1        108     1     2  0.108000E-02  0.108000E-02  0.100000E-04
     1        108     2     2  0.108000E-02  0.108000E-02  0.100000E-04
     1        108     2     2  0.108000E-02  0.108000E-02  0.100000E-04
     1        109     1     2  0.109000E-02  0.109000E-02  0.100000E-04
     1        109     2     2  0.109000E-02  0.109000E-02  0.100000E-04
     1        109     2     2  0.109000E-02  0.109000E-02  0.100000E-04
     1        109     2     2  0.109000E-02  0.109000E-02  0.100000E-04
     1        110     1     2  0.110000E-02  0.110000E-02  0.100000E-04
     1        110     2     2  0.110000E-02  0.110000E-02  0.100000E-04
     1        110     2     2  0.110000E-02  0.110000E-02  0.100000E-04
     1        110     2     2  0.110000E-02  0.110000E-02  0.100000E-04
     1        111     1     2  0.111000E-02  0.111000E-02  0.100000E-04
     1        111     2     2  0.111000E-02  0.111000E-02  0.100000E-04
     1        111     2     2  0.111000E-02  0.111000E-02  0.100000E-04
     1        111     2     2  0.111000E-02  0.111000E-02  0.100000E-04
     1        112     1     2  0.112000E-02  0.112000E-02  0.100000E-04
     1        112     2     2  0.112000E-02  0.112000E-02  0.100000E-04
     1        112     2     2  0.112000E-02  0.112000E-02  0.100000E-04
     1        112     2     2  0.112000E-02  0.112000E-02  0.100000E-04
     1        113     1     2  0.113000E-02  0.113000E-02  0.100000E-04
     1        113     2     2  0.113000E-02  0.113000E-02  0.100000E-04
     1        113     2     2  0.113000E-02  0.113000E-02  0.100000E-04
     1        113     2     2  0.113000E-02  0.113000E-02  0.100000E-04
     1        114     1     2  0.114000E-02  0.114000E-02  0.100000E-04
     1        114     2     2  0.114000E-02  0.114000E-02  0.100000E-04
     1        114     2     2  0.114000E-02  0.114000E-02  0.100000E-04
     1        115     1     2  0.115000E-02  0.115000E-02  0.100000E-04
     1        115     2     2  0.115000E-02  0.115000E-02  0.100000E-04
     1        115     2     2  0.115000E-02  0.115000E-02  0.100000E-04
     1        115     2     2  0.115000E-02  0.115000E-02  0.100000E-04
     1        116     1     2  0.116000E-02  0.116000E-02  0.100000E-04
     1        116     2     2  0.116000E-02  0.116000E-02  0.100000E-04
     1        116     2     2  0.116000E-02  0.116000E-02  0.100000E-04
     1        116     2     2  0.116000E-02  0.116000E-02  0.100000E-04
     1        117     1     2  0.117000E-02  0.117000E-02  0.100000E-04
     1        117     2     2  0.117000E-02  0.117000E-02  0.100000E-04
     1        117     2     2  0.117000E-02  0.117000E-02  0.100000E-04
     1        117     2     2  0.117000E-02  0.117000E-02  0.100000E-04
     1        118     1     2  0.118000E-02  0.118000E-02  0.100000E-04
     1        118     2     2  0.118000E-02  0.118000E-02  0.100000E-04
     1        118     2     2  0.118000E-02  0.118000E-02  0.100000E-04
     1        118     2     2  0.118000E-02  0.118000E-02  0.100000E-04
     1        119     1     2  0.119000E-02  0.119000E-02  0.100000E-04
     1        119     2     2  0.119000E-02  0.119000E-02  0.100000E-04
     1        119     2     2  0.119000E-02  0.119000E-02  0.100000E-04
     1        119     2     2  0.119000E-02  0.119000E-02  0.100000E-04
     1        120     1     2  0.120000E-02  0.120000E-02  0.100000E-04
     1        120     2     2  0.120000E-02  0.120000E-02  0.100000E-04
     1        120     2     2  0.120000E-02  0.120000E-02  0.100000E-04
     1        120     2     2  0.120000E-02  0.120000E-02  0.100000E-04
     1        121     1     2  0.121000E-02  0.121000E-02  0.100000E-04
     1        121     2     2  0.121000E-02  0.121000E-02  0.100000E-04
     1        121     2     2  0.121000E-02  0.121000E-02  0.100000E-04
     1        121     2     2  0.121000E-02  0.121000E-02  0.100000E-04
     1        122     1     2  0.122000E-02  0.122000E-02  0.100000E-04
     1        122     2     2  0.122000E-02  0.122000E-02  0.100000E-04
     1        122     2     2  0.122000E-02  0.122000E-02  0.100000E-04
     1        122     2     2  0.122000E-02  0.122000E-02  0.100000E-04
     1        123     1     2  0.123000E-02  0.123000E-02  0.100000E-04
     1        123     2     2  0.123000E-02  0.123000E-02  0.100000E-04
     1        123     2     2  0.123000E-02  0.123000E-02  0.100000E-04
     1        123     2     2  0.123000E-02  0.123000E-02  0.100000E-04
     1        124     1     2  0.124000E-02  0.124000E-02  0.100000E-04
     1        124     2     2  0.124000E-02  0.124000E-02  0.100000E-04
     1        124     2     2  0.124000E-02  0.124000E-02  0.100000E-04
     1        124     2     2  0.124000E-02  0.124000E-02  0.100000E-04
     1        125     1     2  0.125000E-02  0.125000E-02  0.100000E-04
     1        125     2     2  0.125000E-02  0.125000E-02  0.100000E-04
     1        125     2     2  0.125000E-02  0.125000E-02  0.100000E-04
     1        125     2     2  0.125000E-02  0.125000E-02  0.100000E-04
     1        126     1     2  0.126000E-02  0.126000E-02  0.100000E-04
     1        126     2     2  0.126000E-02  0.126000E-02  0.100000E-04
     1        126     2     2  0.126000E-02  0.126000E-02  0.100000E-04
     1        126     2     2  0.126000E-02  0.126000E-02  0.100000E-04
     1        127     1     2  0.127000E-02  0.127000E-02  0.100000E-04
     1        127     2     2  0.127000E-02  0.127000E-02  0.100000E-04
     1        127     2     2  0.127000E-02  0.127000E-02  0.100000E-04
     1        127     2     2  0.127000E-02  0.127000E-02  0.100000E-04
     1        128     1     2  0.128000E-02  0.128000E-02  0.100000E-04
     1        128     2     2  0.128000E-02  0.128000E-02  0.100000E-04
     1        128     2     2  0.128000E-02  0.128000E-02  0.100000E-04
     1        128     2     2  0.128000E-02  0.128000E-02  0.100000E-04
     1        129     1     2  0.129000E-02  0.129000E-02  0.100000E-04
     1        129     2     2  0.129000E-02  0.129000E-02  0.100000E-04
     1        129     2     2  0.129000E-02  0.129000E-02  0.100000E-04
     1        129     2     2  0.129000E-02  0.129000E-02  0.100000E-04
     1        130     1     2  0.130000E-02  0.130000E-02  0.100000E-04
     1        130     2     2  0.130000E-02  0.130000E-02  0.100000E-04
     1        130     2     2  0.130000E-02  0.130000E-02  0.100000E-04
     1        131     1     2  0.131000E-02  0.131000E-02  0.100000E-04
     1        131     2     2  0.131000E-02  0.131000E-02  0.100000E-04
     1        131     2     2  0.131000E-02  0.131000E-02  0.100000E-04
     1        131     2     2  0.131000E-02  0.131000E-02  0.100000E-04
     1        132     1     2  0.132000E-02  0.132000E-02  0.100000E-04
     1        132     2     2  0.132000E-02  0.132000E-02  0.100000E-04
     1        132     2     2  0.132000E-02  0.132000E-02  0.100000E-04
     1        132     2     2  0.132000E-02  0.132000E-02  0.100000E-04
     1        133     1     2  0.133000E-02  0.133000E-02  0.100000E-04
     1        133     2     2  0.133000E-02  0.133000E-02  0.100000E-04
     1        133     2     2  0.133000E-02  0.133000E-02  0.100000E-04
     1        133     2     2  0.133000E-02  0.133000E-02  0.100000E-04
     1        134     1     2  0.134000E-02  0.134000E-02  0.100000E-04
     1        134     2     2  0.134000E-02  0.134000E-02  0.100000E-04
     1        134     2     2  0.134000E-02  0.134000E-02  0.100000E-04
     1        134     2     2  0.134000E-02  0.134000E-02  0.100000E-04
     1        135     1     2  0.135000E-02  0.135000E-02  0.100000E-04
     1        135     2     2  0.135000E-02  0.135000E-02  0.100000E-04
     1        135     2     2  0.135000E-02  0.135000E-02  0.100000E-04
     1        135     2     2  0.135000E-02  0.135000E-02  0.100000E-04
     1        136     1     2  0.136000E-02  0.136000E-02  0.100000E-04
     1        136     2     2  0.136000E-02  0.136000E-02  0.100000E-04
     1        136     2     2  0.136000E-02  0.136000E-02  0.100000E-04
     1        136     2     2  0.136000E-02  0.136000E-02  0.100000E-04
     1        137     1     2  0.137000E-02  0.137000E-02  0.100000E-04
     1        137     2     2  0.137000E-02  0.137000E-02  0.100000E-04
     1        137     2     2  0.137000E-02  0.137000E-02  0.100000E-04
     1        137     2     2  0.137000E-02  0.137000E-02  0.100000E-04
     1        138     1     2  0.138000E-02  0.138000E-02  0.100000E-04
     1        138     2     2  0.138000E-02  0.138000E-02  0.100000E-04
     1        138     2     2  0.138000E-02  0.138000E-02  0.100000E-04
     1        138     2     2  0.138000E-02  0.138000E-02  0.100000E-04
     1        139     1     2  0.139000E-02  0.139000E-02  0.100000E-04
     1        139     2     2  0.139000E-02  0.139000E-02  0.100000E-04
     1        139     2     2  0.139000E-02  0.139000E-02  0.100000E-04
     1        139     2     2  0.139000E-02  0.139000E-02  0.100000E-04
     1        140     1     2  0.140000E-02  0.140000E-02  0.100000E-04
     1        140     2     2  0.140000E-02  0.140000E-02  0.100000E-04
     1        140     2     2  0.140000E-02  0.140000E-02  0.100000E-04
     1        140     2     2  0.140000E-02  0.140000E-02  0.100000E-04
     1        141     1     2  0.141000E-02  0.141000E-02  0.100000E-04
     1        141     2     2  0.141000E-02  0.141000E-02  0.100000E-04
     1        141     2     2  0.141000E-02  0.141000E-02  0.100000E-04
     1        141     2     2  0.141000E-02  0.141000E-02  0.100000E-04
     1        142     1     2  0.142000E-02  0.142000E-02  0.100000E-04
     1        142     2     2  0.142000E-02  0.142000E-02  0.100000E-04
     1        142     2     2  0.142000E-02  0.142000E-02  0.100000E-04
     1        142     2     2  0.142000E-02  0.142000E-02  0.100000E-04
     1        143     1     2  0.143000E-02  0.143000E-02  0.100000E-04
     1        143     2     2  0.143000E-02  0.143000E-02  0.100000E-04
     1        143     2     2  0.143000E-02  0.143000E-02  0.100000E-04
     1        143     2     2  0.143000E-02  0.143000E-02  0.100000E-04
     1        144     1     2  0.144000E-02  0.144000E-02  0.100000E-04
     1        144     2     2  0.144000E-02  0.144000E-02  0.100000E-04
     1        144     2     2  0.144000E-02  0.144000E-02  0.100000E-04
     1        144     2     2  0.144000E-02  0.144000E-02  0.100000E-04
     1        145     1     2  0.145000E-02  0.145000E-02  0.100000E-04
     1        145     2     2  0.145000E-02  0.145000E-02  0.100000E-04
     1        145     2     2  0.145000E-02  0.145000E-02  0.100000E-04
     1        146     1     2  0.146000E-02  0.146000E-02  0.100000E-04
     1        146     2     2  0.146000E-02  0.146000E-02  0.100000E-04
     1        146     2     2  0.146000E-02  0.146000E-02  0.100000E-04
     1        146     2     2  0.146000E-02  0.146000E-02  0.100000E-04
     1        147     1     2  0.147000E-02  0.147000E-02  0.100000E-04
     1        147     2     2  0.147000E-02  0.147000E-02  0.100000E-04
     1        147     2     2  0.147000E-02  0.147000E-02  0.100000E-04
     1        147     2     2  0.147000E-02  0.147000E-02  0.100000E-04
     1        148     1     2  0.148000E-02  0.148000E-02  0.100000E-04
     1        148     2     2  0.148000E-02  0.148000E-02  0.100000E-04
     1        148     2     2  0.148000E-02  0.148000E-02  0.100000E-04
     1        149     1     2  0.149000E-02  0.149000E-02  0.100000E-04
     1        149     2     2  0.149000E-02  0.149000E-02  0.100000E-04
     1        149     2     2  0.149000E-02  0.149000E-02  0.100000E-04
     1        149     2     2  0.149000E-02  0.149000E-02  0.100000E-04
     1        150     1     2  0.150000E-02  0.150000E-02  0.100000E-04
     1        150     2     2  0.150000E-02  0.150000E-02  0.100000E-04
     1        150     2     2  0.150000E-02  0.150000E-02  0.100000E-04
     1        151     1     2  0.151000E-02  0.151000E-02  0.100000E-04
     1        151     2     2  0.151000E-02  0.151000E-02  0.100000E-04
     1        151     2     2  0.151000E-02  0.151000E-02  0.100000E-04
     1        151     2     2  0.151000E-02  0.151000E-02  0.100000E-04
     1        152     1     2  0.152000E-02  0.152000E-02  0.100000E-04
     1        152     2     2  0.152000E-02  0.152000E-02  0.100000E-04
     1        152     2     2  0.152000E-02  0.152000E-02  0.100000E-04
     1        152     2     2  0.152000E-02  0.152000E-02  0.100000E-04
     1        153     1     2  0.153000E-02  0.153000E-02  0.100000E-04
     1        153     2     2  0.153000E-02  0.153000E-02  0.100000E-04
     1        153     2     2  0.153000E-02  0.153000E-02  0.100000E-04
     1        153     2     2  0.153000E-02  0.153000E-02  0.100000E-04
     1        154     1     2  0.154000E-02  0.154000E-02  0.100000E-04
     1        154     2     2  0.154000E-02  0.154000E-02  0.100000E-04
     1        154     2     2  0.154000E-02  0.154000E-02  0.100000E-04
     1        154     2     2  0.154000E-02  0.154000E-02  0.100000E-04
     1        155     1     2  0.155000E-02  0.155000E-02  0.100000E-04
     1        155     2     2  0.155000E-02  0.155000E-02  0.100000E-04
     1        155     2     2  0.155000E-02  0.155000E-02  0.100000E-04
     1        156     1     2  0.156000E-02  0.156000E-02  0.100000E-04
     1        156     2     2  0.156000E-02  0.156000E-02  0.100000E-04
     1        156     2     2  0.156000E-02  0.156000E-02  0.100000E-04
     1        156     2     2  0.156000E-02  0.156000E-02  0.100000E-04
     1        157     1     2  0.157000E-02  0.157000E-02  0.100000E-04
     1        157     2     2  0.157000E-02  0.157000E-02  0.100000E-04
     1        157     2     2  0.157000E-02  0.157000E-02  0.100000E-04
     1        158     1     2  0.158000E-02  0.158000E-02  0.100000E-04
     1        158     2     2  0.158000E-02  0.158000E-02  0.100000E-04
     1        158     2     2  0.158000E-02  0.158000E-02  0.100000E-04
     1        159     1     2  0.159000E-02  0.159000E-02  0.100000E-04
     1        159     2     2  0.159000E-02  0.159000E-02  0.100000E-04
     1        159     2     2  0.159000E-02  0.159000E-02  0.100000E-04
     1        160     1     2  0.160000E-02  0.160000E-02  0.100000E-04
     1        160     2     2  0.160000E-02  0.160000E-02  0.100000E-04
     1        160     2     2  0.160000E-02  0.160000E-02  0.100000E-04
     1        160     2     2  0.160000E-02  0.160000E-02  0.100000E-04
     1        161     1     2  0.161000E-02  0.161000E-02  0.100000E-04
     1        161     2     2  0.161000E-02  0.161000E-02  0.100000E-04
     1        161     2     2  0.161000E-02  0.161000E-02  0.100000E-04
     1        161     2     2  0.161000E-02  0.161000E-02  0.100000E-04
     1        162     1     2  0.162000E-02  0.162000E-02  0.100000E-04
     1        162     2     2  0.162000E-02  0.162000E-02  0.100000E-04
     1        162     2     2  0.162000E-02  0.162000E-02  0.100000E-04
     1        163     1     2  0.163000E-02  0.163000E-02  0.100000E-04
     1        163     2     2  0.163000E-02  0.163000E-02  0.100000E-04
     1        163     2     2  0.163000E-02  0.163000E-02  0.100000E-04
     1        163     2     2  0.163000E-02  0.163000E-02  0.100000E-04
     1        164     1     2  0.164000E-02  0.164000E-02  0.100000E-04
     1        164     2     2  0.164000E-02  0.164000E-02  0.100000E-04
     1        164     2     2  0.164000E-02  0.164000E-02  0.100000E-04
     1        164     2     2  0.164000E-02  0.164000E-02  0.100000E-04
     1        165     1     2  0.165000E-02  0.165000E-02  0.100000E-04
     1        165     2     2  0.165000E-02  0.165000E-02  0.100000E-04
     1        165     2     2  0.165000E-02  0.165000E-02  0.100000E-04
     1        165     2     2  0.165000E-02  0.165000E-02  0.100000E-04
     1        166     1     2  0.166000E-02  0.166000E-02  0.100000E-04
     1        166     2     2  0.166000E-02  0.166000E-02  0.100000E-04
     1        166     2     2  0.166000E-02  0.166000E-02  0.100000E-04
     1        167     1     2  0.167000E-02  0.167000E-02  0.100000E-04
     1        167     2     2  0.167000E-02  0.167000E-02  0.100000E-04
     1        167     2     2  0.167000E-02  0.167000E-02  0.100000E-04
     1        167     2     2  0.167000E-02  0.167000E-02  0.100000E-04
     1        168     1     2  0.168000E-02  0.168000E-02  0.100000E-04
     1        168     2     2  0.168000E-02  0.168000E-02  0.100000E-04
     1        168     2     2  0.168000E-02  0.168000E-02  0.100000E-04
     1        168     2     2  0.168000E-02  0.168000E-02  0.100000E-04
     1        169     1     2  0.169000E-02  0.169000E-02  0.100000E-04
     1        169     2     2  0.169000E-02  0.169000E-02  0.100000E-04
     1        169     2     2  0.169000E-02  0.169000E-02  0.100000E-04
     1        169     2     2  0.169000E-02  0.169000E-02  0.100000E-04
     1        170     1     2  0.170000E-02  0.170000E-02  0.100000E-04
     1        170     2     2  0.170000E-02  0.170000E-02  0.100000E-04
     1        170     2     2  0.170000E-02  0.170000E-02  0.100000E-04
     1        171     1     2  0.171000E-02  0.171000E-02  0.100000E-04
     1        171     2     2  0.171000E-02  0.171000E-02  0.100000E-04
     1        171     2     2  0.171000E-02  0.171000E-02  0.100000E-04
     1        171     2     2  0.171000E-02  0.171000E-02  0.100000E-04
     1        172     1     2  0.172000E-02  0.172000E-02  0.100000E-04
     1        172     2     2  0.172000E-02  0.172000E-02  0.100000E-04
     1        172     2     2  0.172000E-02  0.172000E-02  0.100000E-04
     1        172     2     2  0.172000E-02  0.172000E-02  0.100000E-04
     1        173     1     2  0.173000E-02  0.173000E-02  0.100000E-04
     1        173     2     2  0.173000E-02  0.173000E-02  0.100000E-04
     1        173     2     2  0.173000E-02  0.173000E-02  0.100000E-04
     1        173     2     2  0.173000E-02  0.173000E-02  0.100000E-04
     1        174     1     2  0.174000E-02  0.174000E-02  0.100000E-04
     1        174     2     2  0.174000E-02  0.174000E-02  0.100000E-04
     1        174     2     2  0.174000E-02  0.174000E-02  0.100000E-04
     1        174     2     2  0.174000E-02  0.174000E-02  0.100000E-04
     1        175     1     2  0.175000E-02  0.175000E-02  0.100000E-04
     1        175     2     2  0.175000E-02  0.175000E-02  0.100000E-04
     1        175     2     2  0.175000E-02  0.175000E-02  0.100000E-04
     1        175     2     2  0.175000E-02  0.175000E-02  0.100000E-04
     1        176     1     2  0.176000E-02  0.176000E-02  0.100000E-04
     1        176     2     2  0.176000E-02  0.176000E-02  0.100000E-04
     1        176     2     2  0.176000E-02  0.176000E-02  0.100000E-04
     1        176     2     2  0.176000E-02  0.176000E-02  0.100000E-04
     1        177     1     2  0.177000E-02  0.177000E-02  0.100000E-04
     1        177     2     2  0.177000E-02  0.177000E-02  0.100000E-04
     1        177     2     2  0.177000E-02  0.177000E-02  0.100000E-04
     1        177     2     2  0.177000E-02  0.177000E-02  0.100000E-04
     1        178     1     2  0.178000E-02  0.178000E-02  0.100000E-04
     1        178     2     2  0.178000E-02  0.178000E-02  0.100000E-04
     1        178     2     2  0.178000E-02  0.178000E-02  0.100000E-04
     1        179     1     2  0.179000E-02  0.179000E-02  0.100000E-04
     1        179     2     2  0.179000E-02  0.179000E-02  0.100000E-04
     1        179     2     2  0.179000E-02  0.179000E-02  0.100000E-04
     1        179     2     2  0.179000E-02  0.179000E-02  0.100000E-04
     1        180     1     2  0.180000E-02  0.180000E-02  0.100000E-04
     1        180     2     2  0.180000E-02  0.180000E-02  0.100000E-04
     1        180     2     2  0.180000E-02  0.180000E-02  0.100000E-04
     1        180     2     2  0.180000E-02  0.180000E-02  0.100000E-04
     1        181     1     2  0.181000E-02  0.181000E-02  0.100000E-04
     1        181     2     2  0.181000E-02  0.181000E-02  0.100000E-04
     1        181     2     2  0.181000E-02  0.181000E-02  0.100000E-04
     1        181     2     2  0.181000E-02  0.181000E-02  0.100000E-04
     1        182     1     2  0.182000E-02  0.182000E-02  0.100000E-04
     1        182     2     2  0.182000E-02  0.182000E-02  0.100000E-04
     1        182     2     2  0.182000E-02  0.182000E-02  0.100000E-04
     1        182     2     2  0.182000E-02  0.182000E-02  0.100000E-04
     1        183     1     2  0.183000E-02  0.183000E-02  0.100000E-04
     1        183     2     2  0.183000E-02  0.183000E-02  0.100000E-04
     1        183     2     2  0.183000E-02  0.183000E-02  0.100000E-04
     1        184     1     2  0.184000E-02  0.184000E-02  0.100000E-04
     1        184     2     2  0.184000E-02  0.184000E-02  0.100000E-04
     1        184     2     2  0.184000E-02  0.184000E-02  0.100000E-04
     1        184     2     2  0.184000E-02  0.184000E-02  0.100000E-04
     1        185     1     2  0.185000E-02  0.185000E-02  0.100000E-04
     1        185     2     2  0.185000E-02  0.185000E-02  0.100000E-04
     1        185     2     2  0.185000E-02  0.185000E-02  0.100000E-04
     1        185     2     2  0.185000E-02  0.185000E-02  0.100000E-04
     1        186     1     2  0.186000E-02  0.186000E-02  0.100000E-04
     1        186     2     2  0.186000E-02  0.186000E-02  0.100000E-04
     1        186     2     2  0.186000E-02  0.186000E-02  0.100000E-04
     1        186     2     2  0.186000E-02  0.186000E-02  0.100000E-04
     1        187     1     2  0.187000E-02  0.187000E-02  0.100000E-04
     1        187     2     2  0.187000E-02  0.187000E-02  0.100000E-04
     1        187     2     2  0.187000E-02  0.187000E-02  0.100000E-04
     1        187     2     2  0.187000E-02  0.187000E-02  0.100000E-04
     1        188     1     2  0.188000E-02  0.188000E-02  0.100000E-04
     1        188     2     2  0.188000E-02  0.188000E-02  0.100000E-04
     1        188     2     2  0.188000E-02  0.188000E-02  0.100000E-04
     1        189     1     2  0.189000E-02  0.189000E-02  0.100000E-04
     1        189     2     2  0.189000E-02  0.189000E-02  0.100000E-04
     1        189     2     2  0.189000E-02  0.189000E-02  0.100000E-04
     1        189     2     2  0.189000E-02  0.189000E-02  0.100000E-04
     1        190     1     2  0.190000E-02  0.190000E-02  0.100000E-04
     1        190     2     2  0.190000E-02  0.190000E-02  0.100000E-04
     1        190     2     2  0.190000E-02  0.190000E-02  0.100000E-04
     1        190     2     2  0.190000E-02  0.190000E-02  0.100000E-04
     1        191     1     2  0.191000E-02  0.191000E-02  0.100000E-04
     1        191     2     2  0.191000E-02  0.191000E-02  0.100000E-04
     1        191     2     2  0.191000E-02  0.191000E-02  0.100000E-04
     1        192     1     2  0.192000E-02  0.192000E-02  0.100000E-04
     1        192     2     2  0.192000E-02  0.192000E-02  0.100000E-04
     1        192     2     2  0.192000E-02  0.192000E-02  0.100000E-04
     1        192     2     2  0.192000E-02  0.192000E-02  0.100000E-04
     1        193     1     2  0.193000E-02  0.193000E-02  0.100000E-04
     1        193     2     2  0.193000E-02  0.193000E-02  0.100000E-04
     1        193     2     2  0.193000E-02  0.193000E-02  0.100000E-04
     1        194     1     2  0.194000E-02  0.194000E-02  0.100000E-04
     1        194     2     2  0.194000E-02  0.194000E-02  0.100000E-04
     1        194     2     2  0.194000E-02  0.194000E-02  0.100000E-04
     1        194     2     2  0.194000E-02  0.194000E-02  0.100000E-04
     1        195     1     2  0.195000E-02  0.195000E-02  0.100000E-04
     1        195     2     2  0.195000E-02  0.195000E-02  0.100000E-04
     1        195     2     2  0.195000E-02  0.195000E-02  0.100000E-04
     1        195     2     2  0.195000E-02  0.195000E-02  0.100000E-04
     1        196     1     2  0.196000E-02  0.196000E-02  0.100000E-04
     1        196     2     2  0.196000E-02  0.196000E-02  0.100000E-04
     1        196     2     2  0.196000E-02  0.196000E-02  0.100000E-04
     1        196     2     2  0.196000E-02  0.196000E-02  0.100000E-04
     1        197     1     2  0.197000E-02  0.197000E-02  0.100000E-04
     1        197     2     2  0.197000E-02  0.197000E-02  0.100000E-04
     1        197     2     2  0.197000E-02  0.197000E-02  0.100000E-04
     1        198     1     2  0.198000E-02  0.198000E-02  0.100000E-04
     1        198     2     2  0.198000E-02  0.198000E-02  0.100000E-04
     1        198     2     2  0.198000E-02  0.198000E-02  0.100000E-04
     1        198     2     2  0.198000E-02  0.198000E-02  0.100000E-04
     1        199     1     2  0.199000E-02  0.199000E-02  0.100000E-04
     1        199     2     2  0.199000E-02  0.199000E-02  0.100000E-04
     1        199     2     2  0.199000E-02  0.199000E-02  0.100000E-04
     1        199     2     2  0.199000E-02  0.199000E-02  0.100000E-04
     1        200     1     2  0.200000E-02  0.200000E-02  0.100000E-04
     1        200     2     2  0.200000E-02  0.200000E-02  0.100000E-04
     1        200     2     2  0.200000E-02  0.200000E-02  0.100000E-04
     1        200     2     2  0.200000E-02  0.200000E-02  0.100000E-04
     1        201     1     2  0.201000E-02  0.201000E-02  0.100000E-04
     1        201     2     2  0.201000E-02  0.201000E-02  0.100000E-04
     1        201     2     2  0.201000E-02  0.201000E-02  0.100000E-04
     1        201     2     2  0.201000E-02  0.201000E-02  0.100000E-04
     1        202     1     2  0.202000E-02  0.202000E-02  0.100000E-04
     1        202     2     2  0.202000E-02  0.202000E-02  0.100000E-04
     1        202     2     2  0.202000E-02  0.202000E-02  0.100000E-04
     1        203     1     2  0.203000E-02  0.203000E-02  0.100000E-04
     1        203     2     2  0.203000E-02  0.203000E-02  0.100000E-04
     1        203     2     2  0.203000E-02  0.203000E-02  0.100000E-04
     1        204     1     2  0.204000E-02  0.204000E-02  0.100000E-04
     1        204     2     2  0.204000E-02  0.204000E-02  0.100000E-04
     1        204     2     2  0.204000E-02  0.204000E-02  0.100000E-04
     1        204     2     2  0.204000E-02  0.204000E-02  0.100000E-04
     1        205     1     2  0.205000E-02  0.205000E-02  0.100000E-04
     1        205     2     2  0.205000E-02  0.205000E-02  0.100000E-04
     1        205     2     2  0.205000E-02  0.205000E-02  0.100000E-04
     1        205     2     2  0.205000E-02  0.205000E-02  0.100000E-04
     1        206     1     2  0.206000E-02  0.206000E-02  0.100000E-04
     1        206     2     2  0.206000E-02  0.206000E-02  0.100000E-04
     1        206     2     2  0.206000E-02  0.206000E-02  0.100000E-04
     1        206     2     2  0.206000E-02  0.206000E-02  0.100000E-04
     1        207     1     2  0.207000E-02  0.207000E-02  0.100000E-04
     1        207     2     2  0.207000E-02  0.207000E-02  0.100000E-04
     1        207     2     2  0.207000E-02  0.207000E-02  0.100000E-04
     1        207     2     2  0.207000E-02  0.207000E-02  0.100000E-04
     1        208     1     2  0.208000E-02  0.208000E-02  0.100000E-04
     1        208     2     2  0.208000E-02  0.208000E-02  0.100000E-04
     1        208     2     2  0.208000E-02  0.208000E-02  0.100000E-04
     1        208     2     2  0.208000E-02  0.208000E-02  0.100000E-04
     1        209     1     2  0.209000E-02  0.209000E-02  0.100000E-04
     1        209     2     2  0.209000E-02  0.209000E-02  0.100000E-04
     1        209     2     2  0.209000E-02  0.209000E-02  0.100000E-04
     1        209     2     2  0.209000E-02  0.209000E-02  0.100000E-04
     1        210     1     2  0.210000E-02  0.210000E-02  0.100000E-04
     1        210     2     2  0.210000E-02  0.210000E-02  0.100000E-04
     1        210     2     2  0.210000E-02  0.210000E-02  0.100000E-04
     1        210     2     2  0.210000E-02  0.210000E-02  0.100000E-04
     1        211     1     2  0.211000E-02  0.211000E-02  0.100000E-04
     1        211     2     2  0.211000E-02  0.211000E-02  0.100000E-04
     1        211     2     2  0.211000E-02  0.211000E-02  0.100000E-04
     1        211     2     2  0.211000E-02  0.211000E-02  0.100000E-04
     1        212     1     2  0.212000E-02  0.212000E-02  0.100000E-04
     1        212     2     2  0.212000E-02  0.212000E-02  0.100000E-04
     1        212     2     2  0.212000E-02  0.212000E-02  0.100000E-04
     1        212     2     2  0.212000E-02  0.212000E-02  0.100000E-04
     1        213     1     2  0.213000E-02  0.213000E-02  0.100000E-04
     1        213     2     2  0.213000E-02  0.213000E-02  0.100000E-04
     1        213     2     2  0.213000E-02  0.213000E-02  0.100000E-04
     1        213     2     2  0.213000E-02  0.213000E-02  0.100000E-04
     1        214     1     2  0.214000E-02  0.214000E-02  0.100000E-04
     1        214     2     2  0.214000E-02  0.214000E-02  0.100000E-04
     1        214     2     2  0.214000E-02  0.214000E-02  0.100000E-04
     1        214     2     2  0.214000E-02  0.214000E-02  0.100000E-04
     1        215     1     2  0.215000E-02  0.215000E-02  0.100000E-04
     1        215     2     2  0.215000E-02  0.215000E-02  0.100000E-04
     1        215     2     2  0.215000E-02  0.215000E-02  0.100000E-04
     1        215     2     2  0.215000E-02  0.215000E-02  0.100000E-04
     1        216     1     2  0.216000E-02  0.216000E-02  0.100000E-04
     1        216     2     2  0.216000E-02  0.216000E-02  0.100000E-04
     1        216     2     2  0.216000E-02  0.216000E-02  0.100000E-04
     1        216     2     2  0.216000E-02  0.216000E-02  0.100000E-04
     1        217     1     2  0.217000E-02  0.217000E-02  0.100000E-04
     1        217     2     2  0.217000E-02  0.217000E-02  0.100000E-04
     1        217     2     2  0.217000E-02  0.217000E-02  0.100000E-04
     1        218     1     2  0.218000E-02  0.218000E-02  0.100000E-04
     1        218     2     2  0.218000E-02  0.218000E-02  0.100000E-04
     1        218     2     2  0.218000E-02  0.218000E-02  0.100000E-04
     1        218     2     2  0.218000E-02  0.218000E-02  0.100000E-04
     1        219     1     2  0.219000E-02  0.219000E-02  0.100000E-04
     1        219     2     2  0.219000E-02  0.219000E-02  0.100000E-04
     1        219     2     2  0.219000E-02  0.219000E-02  0.100000E-04
     1        219     2     2  0.219000E-02  0.219000E-02  0.100000E-04
     1        220     1     2  0.220000E-02  0.220000E-02  0.100000E-04
     1        220     2     2  0.220000E-02  0.220000E-02  0.100000E-04
     1        220     2     2  0.220000E-02  0.220000E-02  0.100000E-04
     1        221     1     2  0.221000E-02  0.221000E-02  0.100000E-04
     1        221     2     2  0.221000E-02  0.221000E-02  0.100000E-04
     1        221     2     2  0.221000E-02  0.221000E-02  0.100000E-04
     1        221     2     2  0.221000E-02  0.221000E-02  0.100000E-04
     1        222     1     2  0.222000E-02  0.222000E-02  0.100000E-04
     1        222     2     2  0.222000E-02  0.222000E-02  0.100000E-04
     1        222     2     2  0.222000E-02  0.222000E-02  0.100000E-04
     1        223     1     2  0.223000E-02  0.223000E-02  0.100000E-04
     1        223     2     2  0.223000E-02  0.223000E-02  0.100000E-04
     1        223     2     2  0.223000E-02  0.223000E-02  0.100000E-04
     1        224     1     2  0.224000E-02  0.224000E-02  0.100000E-04
     1        224     2     2  0.224000E-02  0.224000E-02  0.100000E-04
     1        224     2     2  0.224000E-02  0.224000E-02  0.100000E-04
     1        225     1     2  0.225000E-02  0.225000E-02  0.100000E-04
     1        225     2     2  0.225000E-02  0.225000E-02  0.100000E-04
     1        225     2     2  0.225000E-02  0.225000E-02  0.100000E-04
     1        226     1     2  0.226000E-02  0.226000E-02  0.100000E-04
     1        226     2     2  0.226000E-02  0.226000E-02  0.100000E-04
     1        226     2     2  0.226000E-02  0.226000E-02  0.100000E-04
     1        226     2     2  0.226000E-02  0.226000E-02  0.100000E-04
     1        227     1     2  0.227000E-02  0.227000E-02  0.100000E-04
     1        227     2     2  0.227000E-02  0.227000E-02  0.100000E-04
     1        227     2     2  0.227000E-02  0.227000E-02  0.100000E-04
     1        228     1     2  0.228000E-02  0.228000E-02  0.100000E-04
     1        228     2     2  0.228000E-02  0.228000E-02  0.100000E-04
     1        228     2     2  0.228000E-02  0.228000E-02  0.100000E-04
     1        228     2     2  0.228000E-02  0.228000E-02  0.100000E-04
     1        229     1     2  0.229000E-02  0.229000E-02  0.100000E-04
     1        229     2     2  0.229000E-02  0.229000E-02  0.100000E-04
     1        229     2     2  0.229000E-02  0.229000E-02  0.100000E-04
     1        230     1     2  0.230000E-02  0.230000E-02  0.100000E-04
     1        230     2     2  0.230000E-02  0.230000E-02  0.100000E-04
     1        230     2     2  0.230000E-02  0.230000E-02  0.100000E-04
     1        230     2     2  0.230000E-02  0.230000E-02  0.100000E-04
     1        231     1     2  0.231000E-02  0.231000E-02  0.100000E-04
     1        231     2     2  0.231000E-02  0.231000E-02  0.100000E-04
     1        231     2     2  0.231000E-02  0.231000E-02  0.100000E-04
     1        232     1     2  0.232000E-02  0.232000E-02  0.100000E-04
     1        232     2     2  0.232000E-02  0.232000E-02  0.100000E-04
     1        232     2     2  0.232000E-02  0.232000E-02  0.100000E-04
     1        232     2     2  0.232000E-02  0.232000E-02  0.100000E-04
     1        233     1     2  0.233000E-02  0.233000E-02  0.100000E-04
     1        233     2     2  0.233000E-02  0.233000E-02  0.100000E-04
     1        233     2     2  0.233000E-02  0.233000E-02  0.100000E-04
     1        233     2     2  0.233000E-02  0.233000E-02  0.100000E-04
     1        234     1     2  0.234000E-02  0.234000E-02  0.100000E-04
     1        234     2     2  0.234000E-02  0.234000E-02  0.100000E-04
     1        234     2     2  0.234000E-02  0.234000E-02  0.100000E-04
     1        234     2     2  0.234000E-02  0.234000E-02  0.100000E-04
     1        235     1     2  0.235000E-02  0.235000E-02  0.100000E-04
     1        235     2     2  0.235000E-02  0.235000E-02  0.100000E-04
     1        235     2     2  0.235000E-02  0.235000E-02  0.100000E-04
     1        235     2     2  0.235000E-02  0.235000E-02  0.100000E-04
     1        236     1     2  0.236000E-02  0.236000E-02  0.100000E-04
     1        236     2     2  0.236000E-02  0.236000E-02  0.100000E-04
     1        236     2     2  0.236000E-02  0.236000E-02  0.100000E-04
     1        237     1     2  0.237000E-02  0.237000E-02  0.100000E-04
     1        237     2     2  0.237000E-02  0.237000E-02  0.100000E-04
     1        237     2     2  0.237000E-02  0.237000E-02  0.100000E-04
     1        237     2     2  0.237000E-02  0.237000E-02  0.100000E-04
     1        237     2     2  0.237000E-02  0.237000E-02  0.100000E-04
     1        238     1     2  0.238000E-02  0.238000E-02  0.100000E-04
     1        238     2     2  0.238000E-02  0.238000E-02  0.100000E-04
     1        238     2     2  0.238000E-02  0.238000E-02  0.100000E-04
     1        238     2     2  0.238000E-02  0.238000E-02  0.100000E-04
     1        239     1     2  0.239000E-02  0.239000E-02  0.100000E-04
     1        239     2     2  0.239000E-02  0.239000E-02  0.100000E-04
     1        239     2     2  0.239000E-02  0.239000E-02  0.100000E-04
     1        239     2     2  0.239000E-02  0.239000E-02  0.100000E-04
     1        240     1     2  0.240000E-02  0.240000E-02  0.100000E-04
     1        240     2     2  0.240000E-02  0.240000E-02  0.100000E-04
     1        240     2     2  0.240000E-02  0.240000E-02  0.100000E-04
     1        240     2     2  0.240000E-02  0.240000E-02  0.100000E-04
     1        241     1     2  0.241000E-02  0.241000E-02  0.100000E-04
     1        241     2     2  0.241000E-02  0.241000E-02  0.100000E-04
     1        241     2     2  0.241000E-02  0.241000E-02  0.100000E-04
     1        241     2     2  0.241000E-02  0.241000E-02  0.100000E-04
     1        242     1     2  0.242000E-02  0.242000E-02  0.100000E-04
     1        242     2     2  0.242000E-02  0.242000E-02  0.100000E-04
     1        242     2     2  0.242000E-02  0.242000E-02  0.100000E-04
     1        242     2     2  0.242000E-02  0.242000E-02  0.100000E-04
     1        243     1     2  0.243000E-02  0.243000E-02  0.100000E-04
     1        243     2     2  0.243000E-02  0.243000E-02  0.100000E-04
     1        243     2     2  0.243000E-02  0.243000E-02  0.100000E-04
     1        243     2     2  0.243000E-02  0.243000E-02  0.100000E-04
     1        244     1     2  0.244000E-02  0.244000E-02  0.100000E-04
     1        244     2     2  0.244000E-02  0.244000E-02  0.100000E-04
     1        244     2     2  0.244000E-02  0.244000E-02  0.100000E-04
     1        244     2     2  0.244000E-02  0.244000E-02  0.100000E-04
     1        245     1     2  0.245000E-02  0.245000E-02  0.100000E-04
     1        245     2     2  0.245000E-02  0.245000E-02  0.100000E-04
     1        245     2     2  0.245000E-02  0.245000E-02  0.100000E-04
     1        245     2     2  0.245000E-02  0.245000E-02  0.100000E-04
     1        246     1     2  0.246000E-02  0.246000E-02  0.100000E-04
     1        246     2     2  0.246000E-02  0.246000E-02  0.100000E-04
     1        246     2     2  0.246000E-02  0.246000E-02  0.100000E-04
     1        246     2     2  0.246000E-02  0.246000E-02  0.100000E-04
     1        247     1     2  0.247000E-02  0.247000E-02  0.100000E-04
     1        247     2     2  0.247000E-02  0.247000E-02  0.100000E-04
     1        247     2     2  0.247000E-02  0.247000E-02  0.100000E-04
     1        247     2     2  0.247000E-02  0.247000E-02  0.100000E-04
     1        248     1     2  0.248000E-02  0.248000E-02  0.100000E-04
     1        248     2     2  0.248000E-02  0.248000E-02  0.100000E-04
[...]
     1        341     2     2  0.341000E-02  0.341000E-02  0.100000E-04
     1        341     2     2  0.341000E-02  0.341000E-02  0.100000E-04
     1        341     2     2  0.341000E-02  0.341000E-02  0.100000E-04
     1        342     1     2  0.342000E-02  0.342000E-02  0.100000E-04
     1        342     2     2  0.342000E-02  0.342000E-02  0.100000E-04
     1        342     2     2  0.342000E-02  0.342000E-02  0.100000E-04
     1        343     1     2  0.343000E-02  0.343000E-02  0.100000E-04
     1        343     2     2  0.343000E-02  0.343000E-02  0.100000E-04
     1        343     2     2  0.343000E-02  0.343000E-02  0.100000E-04
     1        343     2     2  0.343000E-02  0.343000E-02  0.100000E-04
     1        344     1     2  0.344000E-02  0.344000E-02  0.100000E-04
     1        344     2     2  0.344000E-02  0.344000E-02  0.100000E-04
     1        344     2     2  0.344000E-02  0.344000E-02  0.100000E-04
     1        345     1     2  0.345000E-02  0.345000E-02  0.100000E-04
     1        345     2     2  0.345000E-02  0.345000E-02  0.100000E-04
     1        345     2     2  0.345000E-02  0.345000E-02  0.100000E-04
     1        346     1     2  0.346000E-02  0.346000E-02  0.100000E-04
     1        346     2     2  0.346000E-02  0.346000E-02  0.100000E-04
     1        346     2     2  0.346000E-02  0.346000E-02  0.100000E-04
     1        347     1     2  0.347000E-02  0.347000E-02  0.100000E-04
     1        347     2     2  0.347000E-02  0.347000E-02  0.100000E-04
     1        347     2     2  0.347000E-02  0.347000E-02  0.100000E-04
     1        347     2     2  0.347000E-02  0.347000E-02  0.100000E-04
     1        348     1     2  0.348000E-02  0.348000E-02  0.100000E-04
     1        348     2     2  0.348000E-02  0.348000E-02  0.100000E-04
     1        348     2     2  0.348000E-02  0.348000E-02  0.100000E-04
     1        348     2     2  0.348000E-02  0.348000E-02  0.100000E-04
     1        349     1     2  0.349000E-02  0.349000E-02  0.100000E-04
     1        349     2     2  0.349000E-02  0.349000E-02  0.100000E-04
     1        349     2     2  0.349000E-02  0.349000E-02  0.100000E-04
     1        349     2     2  0.349000E-02  0.349000E-02  0.100000E-04
     1        350     1     2  0.350000E-02  0.350000E-02  0.100000E-04
     1        350     2     2  0.350000E-02  0.350000E-02  0.100000E-04
     1        350     2     2  0.350000E-02  0.350000E-02  0.100000E-04
     1        350     2     2  0.350000E-02  0.350000E-02  0.100000E-04
     1        351     1     2  0.351000E-02  0.351000E-02  0.100000E-04
     1        351     2     2  0.351000E-02  0.351000E-02  0.100000E-04
     1        351     2     2  0.351000E-02  0.351000E-02  0.100000E-04
     1        352     1     2  0.352000E-02  0.352000E-02  0.100000E-04
     1        352     2     2  0.352000E-02  0.352000E-02  0.100000E-04
     1        352     2     2  0.352000E-02  0.352000E-02  0.100000E-04
     1        353     1     2  0.353000E-02  0.353000E-02  0.100000E-04
     1        353     2     2  0.353000E-02  0.353000E-02  0.100000E-04
     1        353     2     2  0.353000E-02  0.353000E-02  0.100000E-04
     1        354     1     2  0.354000E-02  0.354000E-02  0.100000E-04
     1        354     2     2  0.354000E-02  0.354000E-02  0.100000E-04
     1        354     2     2  0.354000E-02  0.354000E-02  0.100000E-04
     1        354     2     2  0.354000E-02  0.354000E-02  0.100000E-04
     1        355     1     2  0.355000E-02  0.355000E-02  0.100000E-04
     1        355     2     2  0.355000E-02  0.355000E-02  0.100000E-04
     1        355     2     2  0.355000E-02  0.355000E-02  0.100000E-04
     1        355     2     2  0.355000E-02  0.355000E-02  0.100000E-04
     1        356     1     2  0.356000E-02  0.356000E-02  0.100000E-04
     1        356     2     2  0.356000E-02  0.356000E-02  0.100000E-04
     1        356     2     2  0.356000E-02  0.356000E-02  0.100000E-04
     1        356     2     2  0.356000E-02  0.356000E-02  0.100000E-04
     1        357     1     2  0.357000E-02  0.357000E-02  0.100000E-04
     1        357     2     2  0.357000E-02  0.357000E-02  0.100000E-04
     1        357     2     2  0.357000E-02  0.357000E-02  0.100000E-04
     1        357     2     2  0.357000E-02  0.357000E-02  0.100000E-04
     1        358     1     2  0.358000E-02  0.358000E-02  0.100000E-04
     1        358     2     2  0.358000E-02  0.358000E-02  0.100000E-04
     1        358     2     2  0.358000E-02  0.358000E-02  0.100000E-04
     1        358     2     2  0.358000E-02  0.358000E-02  0.100000E-04
     1        359     1     2  0.359000E-02  0.359000E-02  0.100000E-04
     1        359     2     2  0.359000E-02  0.359000E-02  0.100000E-04
     1        359     2     2  0.359000E-02  0.359000E-02  0.100000E-04
     1        360     1     2  0.360000E-02  0.360000E-02  0.100000E-04
     1        360     2     2  0.360000E-02  0.360000E-02  0.100000E-04
     1        360     2     2  0.360000E-02  0.360000E-02  0.100000E-04
     1        360     2     2  0.360000E-02  0.360000E-02  0.100000E-04
     1        361     1     2  0.361000E-02  0.361000E-02  0.100000E-04
     1        361     2     2  0.361000E-02  0.361000E-02  0.100000E-04
     1        361     2     2  0.361000E-02  0.361000E-02  0.100000E-04
     1        362     1     2  0.362000E-02  0.362000E-02  0.100000E-04
     1        362     2     2  0.362000E-02  0.362000E-02  0.100000E-04
     1        362     2     2  0.362000E-02  0.362000E-02  0.100000E-04
     1        363     1     2  0.363000E-02  0.363000E-02  0.100000E-04
     1        363     2     2  0.363000E-02  0.363000E-02  0.100000E-04
     1        363     2     2  0.363000E-02  0.363000E-02  0.100000E-04
     1        364     1     2  0.364000E-02  0.364000E-02  0.100000E-04
     1        364     2     2  0.364000E-02  0.364000E-02  0.100000E-04
     1        364     2     2  0.364000E-02  0.364000E-02  0.100000E-04
     1        364     2     2  0.364000E-02  0.364000E-02  0.100000E-04
     1        365     1     2  0.365000E-02  0.365000E-02  0.100000E-04
     1        365     2     2  0.365000E-02  0.365000E-02  0.100000E-04
     1        365     2     2  0.365000E-02  0.365000E-02  0.100000E-04
     1        366     1     2  0.366000E-02  0.366000E-02  0.100000E-04
     1        366     2     2  0.366000E-02  0.366000E-02  0.100000E-04
     1        366     2     2  0.366000E-02  0.366000E-02  0.100000E-04
     1        366     2     2  0.366000E-02  0.366000E-02  0.100000E-04
     1        367     1     2  0.367000E-02  0.367000E-02  0.100000E-04
     1        367     2     2  0.367000E-02  0.367000E-02  0.100000E-04
     1        367     2     2  0.367000E-02  0.367000E-02  0.100000E-04
     1        367     2     2  0.367000E-02  0.367000E-02  0.100000E-04
     1        368     1     2  0.368000E-02  0.368000E-02  0.100000E-04
     1        368     2     2  0.368000E-02  0.368000E-02  0.100000E-04
     1        368     2     2  0.368000E-02  0.368000E-02  0.100000E-04
     1        368     2     2  0.368000E-02  0.368000E-02  0.100000E-04
     1        369     1     2  0.369000E-02  0.369000E-02  0.100000E-04
     1        369     2     2  0.369000E-02  0.369000E-02  0.100000E-04
     1        369     2     2  0.369000E-02  0.369000E-02  0.100000E-04
     1        370     1     2  0.370000E-02  0.370000E-02  0.100000E-04
     1        370     2     2  0.370000E-02  0.370000E-02  0.100000E-04
     1        370     2     2  0.370000E-02  0.370000E-02  0.100000E-04
     1        370     2     2  0.370000E-02  0.370000E-02  0.100000E-04
     1        370     2     2  0.370000E-02  0.370000E-02  0.100000E-04
     1        371     1     2  0.371000E-02  0.371000E-02  0.100000E-04
     1        371     2     2  0.371000E-02  0.371000E-02  0.100000E-04
     1        371     2     2  0.371000E-02  0.371000E-02  0.100000E-04
     1        371     2     2  0.371000E-02  0.371000E-02  0.100000E-04
     1        371     2     2  0.371000E-02  0.371000E-02  0.100000E-04
     1        371     2     2  0.371000E-02  0.371000E-02  0.100000E-04
     1        372     1     2  0.372000E-02  0.372000E-02  0.100000E-04
     1        372     2     2  0.372000E-02  0.372000E-02  0.100000E-04
     1        372     2     2  0.372000E-02  0.372000E-02  0.100000E-04
     1        372     2     2  0.372000E-02  0.372000E-02  0.100000E-04
     1        372     2     2  0.372000E-02  0.372000E-02  0.100000E-04
     1        372     2     2  0.372000E-02  0.372000E-02  0.100000E-04
     1        373     1     2  0.373000E-02  0.373000E-02  0.100000E-04
     1        373     2     2  0.373000E-02  0.373000E-02  0.100000E-04
     1        373     2     2  0.373000E-02  0.373000E-02  0.100000E-04
     1        373     2     2  0.373000E-02  0.373000E-02  0.100000E-04
     1        374     1     2  0.374000E-02  0.374000E-02  0.100000E-04
     1        374     2     2  0.374000E-02  0.374000E-02  0.100000E-04
     1        374     2     2  0.374000E-02  0.374000E-02  0.100000E-04
     1        374     2     2  0.374000E-02  0.374000E-02  0.100000E-04
     1        375     1     2  0.375000E-02  0.375000E-02  0.100000E-04
     1        375     2     2  0.375000E-02  0.375000E-02  0.100000E-04
     1        375     2     2  0.375000E-02  0.375000E-02  0.100000E-04
     1        375     2     2  0.375000E-02  0.375000E-02  0.100000E-04
     1        375     2     2  0.375000E-02  0.375000E-02  0.100000E-04
     1        376     1     2  0.376000E-02  0.376000E-02  0.100000E-04
     1        376     2     2  0.376000E-02  0.376000E-02  0.100000E-04
     1        376     2     2  0.376000E-02  0.376000E-02  0.100000E-04
     1        376     2     2  0.376000E-02  0.376000E-02  0.100000E-04
     1        376     2     2  0.376000E-02  0.376000E-02  0.100000E-04
     1        376     2     2  0.376000E-02  0.376000E-02  0.100000E-04
     1        377     1     2  0.377000E-02  0.377000E-02  0.100000E-04
     1        377     2     2  0.377000E-02  0.377000E-02  0.100000E-04
     1        377     2     2  0.377000E-02  0.377000E-02  0.100000E-04
     1        377     2     2  0.377000E-02  0.377000E-02  0.100000E-04
     1        377     2     2  0.377000E-02  0.377000E-02  0.100000E-04
     1        378     1     2  0.378000E-02  0.378000E-02  0.100000E-04
     1        378     2     2  0.378000E-02  0.378000E-02  0.100000E-04
     1        378     2     2  0.378000E-02  0.378000E-02  0.100000E-04
     1        378     2     2  0.378000E-02  0.378000E-02  0.100000E-04
     1        378     2     2  0.378000E-02  0.378000E-02  0.100000E-04
     1        379     1     2  0.379000E-02  0.379000E-02  0.100000E-04
     1        379     2     2  0.379000E-02  0.379000E-02  0.100000E-04
     1        379     2     2  0.379000E-02  0.379000E-02  0.100000E-04
     1        379     2     2  0.379000E-02  0.379000E-02  0.100000E-04
     1        379     2     2  0.379000E-02  0.379000E-02  0.100000E-04
     1        380     1     2  0.380000E-02  0.380000E-02  0.100000E-04
     1        380     2     2  0.380000E-02  0.380000E-02  0.100000E-04
     1        380     2     2  0.380000E-02  0.380000E-02  0.100000E-04
     1        380     2     2  0.380000E-02  0.380000E-02  0.100000E-04
     1        381     1     2  0.381000E-02  0.381000E-02  0.100000E-04
     1        381     2     2  0.381000E-02  0.381000E-02  0.100000E-04
     1        381     2     2  0.381000E-02  0.381000E-02  0.100000E-04
     1        381     2     2  0.381000E-02  0.381000E-02  0.100000E-04
     1        381     2     2  0.381000E-02  0.381000E-02  0.100000E-04
     1        382     1     2  0.382000E-02  0.382000E-02  0.100000E-04
     1        382     2     2  0.382000E-02  0.382000E-02  0.100000E-04
     1        382     2     2  0.382000E-02  0.382000E-02  0.100000E-04
     1        382     2     2  0.382000E-02  0.382000E-02  0.100000E-04
     1        382     2     2  0.382000E-02  0.382000E-02  0.100000E-04
     1        383     1     2  0.383000E-02  0.383000E-02  0.100000E-04
     1        383     2     2  0.383000E-02  0.383000E-02  0.100000E-04
     1        383     2     2  0.383000E-02  0.383000E-02  0.100000E-04
     1        383     2     2  0.383000E-02  0.383000E-02  0.100000E-04
     1        383     2     2  0.383000E-02  0.383000E-02  0.100000E-04
     1        384     1     2  0.384000E-02  0.384000E-02  0.100000E-04
     1        384     2     2  0.384000E-02  0.384000E-02  0.100000E-04
     1        384     2     2  0.384000E-02  0.384000E-02  0.100000E-04
     1        384     2     2  0.384000E-02  0.384000E-02  0.100000E-04
     1        384     2     2  0.384000E-02  0.384000E-02  0.100000E-04
     1        385     1     2  0.385000E-02  0.385000E-02  0.100000E-04
     1        385     2     2  0.385000E-02  0.385000E-02  0.100000E-04
     1        385     2     2  0.385000E-02  0.385000E-02  0.100000E-04
     1        385     2     2  0.385000E-02  0.385000E-02  0.100000E-04
     1        385     2     2  0.385000E-02  0.385000E-02  0.100000E-04
     1        386     1     2  0.386000E-02  0.386000E-02  0.100000E-04
     1        386     2     2  0.386000E-02  0.386000E-02  0.100000E-04
     1        386     2     2  0.386000E-02  0.386000E-02  0.100000E-04
     1        386     2     2  0.386000E-02  0.386000E-02  0.100000E-04
     1        387     1     2  0.387000E-02  0.387000E-02  0.100000E-04
     1        387     2     2  0.387000E-02  0.387000E-02  0.100000E-04
     1        387     2     2  0.387000E-02  0.387000E-02  0.100000E-04
     1        387     2     2  0.387000E-02  0.387000E-02  0.100000E-04
     1        388     1     2  0.388000E-02  0.388000E-02  0.100000E-04
     1        388     2     2  0.388000E-02  0.388000E-02  0.100000E-04
     1        388     2     2  0.388000E-02  0.388000E-02  0.100000E-04
     1        388     2     2  0.388000E-02  0.388000E-02  0.100000E-04
     1        389     1     2  0.389000E-02  0.389000E-02  0.100000E-04
     1        389     2     2  0.389000E-02  0.389000E-02  0.100000E-04
     1        389     2     2  0.389000E-02  0.389000E-02  0.100000E-04
     1        389     2     2  0.389000E-02  0.389000E-02  0.100000E-04
     1        390     1     2  0.390000E-02  0.390000E-02  0.100000E-04
     1        390     2     2  0.390000E-02  0.390000E-02  0.100000E-04
     1        390     2     2  0.390000E-02  0.390000E-02  0.100000E-04
     1        390     2     2  0.390000E-02  0.390000E-02  0.100000E-04
     1        391     1     2  0.391000E-02  0.391000E-02  0.100000E-04
     1        391     2     2  0.391000E-02  0.391000E-02  0.100000E-04
     1        391     2     2  0.391000E-02  0.391000E-02  0.100000E-04
     1        391     2     2  0.391000E-02  0.391000E-02  0.100000E-04
     1        392     1     2  0.392000E-02  0.392000E-02  0.100000E-04
     1        392     2     2  0.392000E-02  0.392000E-02  0.100000E-04
     1        392     2     2  0.392000E-02  0.392000E-02  0.100000E-04
     1        392     2     2  0.392000E-02  0.392000E-02  0.100000E-04
     1        393     1     2  0.393000E-02  0.393000E-02  0.100000E-04
     1        393     2     2  0.393000E-02  0.393000E-02  0.100000E-04
     1        393     2     2  0.393000E-02  0.393000E-02  0.100000E-04
     1        393     2     2  0.393000E-02  0.393000E-02  0.100000E-04
     1        394     1     2  0.394000E-02  0.394000E-02  0.100000E-04
     1        394     2     2  0.394000E-02  0.394000E-02  0.100000E-04
     1        394     2     2  0.394000E-02  0.394000E-02  0.100000E-04
     1        394     2     2  0.394000E-02  0.394000E-02  0.100000E-04
     1        395     1     2  0.395000E-02  0.395000E-02  0.100000E-04
     1        395     2     2  0.395000E-02  0.395000E-02  0.100000E-04
     1        395     2     2  0.395000E-02  0.395000E-02  0.100000E-04
     1        396     1     2  0.396000E-02  0.396000E-02  0.100000E-04
     1        396     2     2  0.396000E-02  0.396000E-02  0.100000E-04
     1        396     2     2  0.396000E-02  0.396000E-02  0.100000E-04
     1        396     2     2  0.396000E-02  0.396000E-02  0.100000E-04
     1        397     1     2  0.397000E-02  0.397000E-02  0.100000E-04
     1        397     2     2  0.397000E-02  0.397000E-02  0.100000E-04
     1        397     2     2  0.397000E-02  0.397000E-02  0.100000E-04
     1        397     2     2  0.397000E-02  0.397000E-02  0.100000E-04
     1        398     1     2  0.398000E-02  0.398000E-02  0.100000E-04
     1        398     2     2  0.398000E-02  0.398000E-02  0.100000E-04
     1        398     2     2  0.398000E-02  0.398000E-02  0.100000E-04
     1        398     2     2  0.398000E-02  0.398000E-02  0.100000E-04
     1        399     1     2  0.399000E-02  0.399000E-02  0.100000E-04
     1        399     2     2  0.399000E-02  0.399000E-02  0.100000E-04
     1        399     2     2  0.399000E-02  0.399000E-02  0.100000E-04
     1        399     2     2  0.399000E-02  0.399000E-02  0.100000E-04
     1        400     1     2  0.400000E-02  0.400000E-02  0.100000E-04
     1        400     2     2  0.400000E-02  0.400000E-02  0.100000E-04
     1        400     2     2  0.400000E-02  0.400000E-02  0.100000E-04
     1        400     2     2  0.400000E-02  0.400000E-02  0.100000E-04
     1        401     1     2  0.401000E-02  0.401000E-02  0.100000E-04
     1        401     2     2  0.401000E-02  0.401000E-02  0.100000E-04
     1        401     2     2  0.401000E-02  0.401000E-02  0.100000E-04
     1        402     1     2  0.402000E-02  0.402000E-02  0.100000E-04
     1        402     2     2  0.402000E-02  0.402000E-02  0.100000E-04
     1        402     2     2  0.402000E-02  0.402000E-02  0.100000E-04
     1        402     2     2  0.402000E-02  0.402000E-02  0.100000E-04
     1        403     1     2  0.403000E-02  0.403000E-02  0.100000E-04
     1        403     2     2  0.403000E-02  0.403000E-02  0.100000E-04
     1        403     2     2  0.403000E-02  0.403000E-02  0.100000E-04
     1        403     2     2  0.403000E-02  0.403000E-02  0.100000E-04
     1        404     1     2  0.404000E-02  0.404000E-02  0.100000E-04
     1        404     2     2  0.404000E-02  0.404000E-02  0.100000E-04
     1        404     2     2  0.404000E-02  0.404000E-02  0.100000E-04
     1        404     2     2  0.404000E-02  0.404000E-02  0.100000E-04
     1        405     1     2  0.405000E-02  0.405000E-02  0.100000E-04
     1        405     2     2  0.405000E-02  0.405000E-02  0.100000E-04
     1        405     2     2  0.405000E-02  0.405000E-02  0.100000E-04
     1        405     2     2  0.405000E-02  0.405000E-02  0.100000E-04
     1        406     1     2  0.406000E-02  0.406000E-02  0.100000E-04
     1        406     2     2  0.406000E-02  0.406000E-02  0.100000E-04
     1        406     2     2  0.406000E-02  0.406000E-02  0.100000E-04
     1        406     2     2  0.406000E-02  0.406000E-02  0.100000E-04
     1        407     1     2  0.407000E-02  0.407000E-02  0.100000E-04
     1        407     2     2  0.407000E-02  0.407000E-02  0.100000E-04
     1        407     2     2  0.407000E-02  0.407000E-02  0.100000E-04
     1        407     2     2  0.407000E-02  0.407000E-02  0.100000E-04
     1        408     1     2  0.408000E-02  0.408000E-02  0.100000E-04
     1        408     2     2  0.408000E-02  0.408000E-02  0.100000E-04
     1        408     2     2  0.408000E-02  0.408000E-02  0.100000E-04
     1        408     2     2  0.408000E-02  0.408000E-02  0.100000E-04
     1        409     1     2  0.409000E-02  0.409000E-02  0.100000E-04
     1        409     2     2  0.409000E-02  0.409000E-02  0.100000E-04
     1        409     2     2  0.409000E-02  0.409000E-02  0.100000E-04
     1        410     1     2  0.410000E-02  0.410000E-02  0.100000E-04
     1        410     2     2  0.410000E-02  0.410000E-02  0.100000E-04
